A-OOO6uv
     RDKit          3D

152175  0  0  0  0  0  0  0  0999 V2000
   30.9082   -1.7154    0.6244 C   0  0  0  0  0  0  0  0  0  0  0  0
   32.1597   -1.0066    0.7007 C   0  0  0  0  0  0  0  0  0  0  0  0
   31.8620    0.3382    0.6954 C   0  0  0  0  0  0  0  0  0  0  0  0
   30.4806    0.5179    0.6197 O   0  0  0  0  0  0  0  0  0  0  0  0
   29.8999   -0.7646    0.5760 C   0  0  0  0  0  0  0  0  0  0  0  0
   28.4579   -0.8321    0.4951 C   0  0  0  0  0  0  0  0  0  0  0  0
   27.6429    0.3018    0.4581 C   0  0  0  0  0  0  0  0  0  0  0  0
   26.2180    0.2385    0.3790 C   0  0  0  0  0  0  0  0  0  0  0  0
   25.5064   -0.9635    0.3315 C   0  0  0  0  0  0  0  0  0  0  0  0
   24.0669   -1.0257    0.2542 C   0  0  0  0  0  0  0  0  0  0  0  0
   23.1448   -2.0654    0.1997 C   0  0  0  0  0  0  0  0  0  0  0  0
   21.8393   -1.4822    0.1375 C   0  0  0  0  0  0  0  0  0  0  0  0
   22.0037   -0.1028    0.1557 C   0  0  0  0  0  0  0  0  0  0  0  0
   23.3709    0.1998    0.2271 O   0  0  0  0  0  0  0  0  0  0  0  0
   26.3121   -2.1605    0.3672 C   0  0  0  0  0  0  0  0  0  0  0  0
   25.9176   -3.4466    0.3370 N   0  0  0  0  0  0  0  0  0  0  0  0
   27.1308   -4.1944    0.3982 O   0  0  0  0  0  0  0  0  0  0  0  0
   28.2716   -3.3415    0.4668 N   0  0  0  0  0  0  0  0  0  0  0  0
   27.7627   -2.0953    0.4475 C   0  0  0  0  0  0  0  0  0  0  0  0
   19.9856    2.9820    0.0810 C   0  0  0  0  0  0  0  0  0  0  0  0
   21.2820    2.3821    0.1337 C   0  0  0  0  0  0  0  0  0  0  0  0
   21.0988    1.0048    0.1198 C   0  0  0  0  0  0  0  0  0  0  0  0
   19.7280    0.7189    0.0594 O   0  0  0  0  0  0  0  0  0  0  0  0
   19.0483    1.9548    0.0365 C   0  0  0  0  0  0  0  0  0  0  0  0
   17.6087    1.9225   -0.0225 C   0  0  0  0  0  0  0  0  0  0  0  0
   16.8640    0.7383   -0.0616 C   0  0  0  0  0  0  0  0  0  0  0  0
   15.4380    0.7129   -0.1155 C   0  0  0  0  0  0  0  0  0  0  0  0
   14.6505    1.8696   -0.1333 C   0  0  0  0  0  0  0  0  0  0  0  0
   13.2099    1.8504   -0.1818 C   0  0  0  0  0  0  0  0  0  0  0  0
   12.2352    2.8434   -0.1971 C   0  0  0  0  0  0  0  0  0  0  0  0
   10.9610    2.1973   -0.2436 C   0  0  0  0  0  0  0  0  0  0  0  0
   11.1944    0.8277   -0.2564 C   0  0  0  0  0  0  0  0  0  0  0  0
   12.5756    0.5914   -0.2192 O   0  0  0  0  0  0  0  0  0  0  0  0
   15.3807    3.1141   -0.0968 C   0  0  0  0  0  0  0  0  0  0  0  0
   14.9054    4.3731   -0.1050 N   0  0  0  0  0  0  0  0  0  0  0  0
   16.0694    5.1959   -0.0555 O   0  0  0  0  0  0  0  0  0  0  0  0
   17.2622    4.4155   -0.0172 N   0  0  0  0  0  0  0  0  0  0  0  0
   16.8334    3.1402   -0.0427 C   0  0  0  0  0  0  0  0  0  0  0  0
    9.2724   -2.3185   -0.3690 C   0  0  0  0  0  0  0  0  0  0  0  0
   10.5534   -1.6840   -0.3300 C   0  0  0  0  0  0  0  0  0  0  0  0
   10.3325   -0.3126   -0.2994 C   0  0  0  0  0  0  0  0  0  0  0  0
    8.9530   -0.0647   -0.3177 O   0  0  0  0  0  0  0  0  0  0  0  0
    8.3065   -1.3168   -0.3607 C   0  0  0  0  0  0  0  0  0  0  0  0
    6.8653   -1.3155   -0.3800 C   0  0  0  0  0  0  0  0  0  0  0  0
    6.0988   -0.1449   -0.3487 C   0  0  0  0  0  0  0  0  0  0  0  0
    4.6721   -0.1444   -0.3604 C   0  0  0  0  0  0  0  0  0  0  0  0
    3.9056   -1.3147   -0.4033 C   0  0  0  0  0  0  0  0  0  0  0  0
    2.4643   -1.3172   -0.4088 C   0  0  0  0  0  0  0  0  0  0  0  0
    1.5022   -2.3223   -0.4365 C   0  0  0  0  0  0  0  0  0  0  0  0
    0.2189   -1.6923   -0.4184 C   0  0  0  0  0  0  0  0  0  0  0  0
    0.4347   -0.3198   -0.3807 C   0  0  0  0  0  0  0  0  0  0  0  0
    1.8132   -0.0666   -0.3746 O   0  0  0  0  0  0  0  0  0  0  0  0
    4.6586   -2.5455   -0.4395 C   0  0  0  0  0  0  0  0  0  0  0  0
    4.2071   -3.8131   -0.4865 N   0  0  0  0  0  0  0  0  0  0  0  0
    5.3856   -4.6164   -0.5072 O   0  0  0  0  0  0  0  0  0  0  0  0
    6.5640   -3.8136   -0.4696 N   0  0  0  0  0  0  0  0  0  0  0  0
    6.1124   -2.5458   -0.4290 C   0  0  0  0  0  0  0  0  0  0  0  0
   -1.5189    2.8083   -0.3053 C   0  0  0  0  0  0  0  0  0  0  0  0
   -0.2316    2.1856   -0.3283 C   0  0  0  0  0  0  0  0  0  0  0  0
   -0.4395    0.8116   -0.3502 C   0  0  0  0  0  0  0  0  0  0  0  0
   -1.8165    0.5511   -0.3414 O   0  0  0  0  0  0  0  0  0  0  0  0
   -2.4749    1.7975   -0.3137 C   0  0  0  0  0  0  0  0  0  0  0  0
   -3.9158    1.7798   -0.2982 C   0  0  0  0  0  0  0  0  0  0  0  0
   -4.6653    0.5981   -0.3025 C   0  0  0  0  0  0  0  0  0  0  0  0
   -6.0910    0.5772   -0.2857 C   0  0  0  0  0  0  0  0  0  0  0  0
   -6.8747    1.7361   -0.2631 C   0  0  0  0  0  0  0  0  0  0  0  0
   -8.3156    1.7105   -0.2454 C   0  0  0  0  0  0  0  0  0  0  0  0
   -9.3032    2.6906   -0.2261 C   0  0  0  0  0  0  0  0  0  0  0  0
  -10.5708    2.0269   -0.2119 C   0  0  0  0  0  0  0  0  0  0  0  0
  -10.3197    0.6600   -0.2234 C   0  0  0  0  0  0  0  0  0  0  0  0
   -8.9346    0.4438   -0.2445 O   0  0  0  0  0  0  0  0  0  0  0  0
   -6.1405    2.9784   -0.2575 C   0  0  0  0  0  0  0  0  0  0  0  0
   -6.6121    4.2384   -0.2373 N   0  0  0  0  0  0  0  0  0  0  0  0
   -5.4442    5.0572   -0.2422 O   0  0  0  0  0  0  0  0  0  0  0  0
   -4.2523    4.2737   -0.2655 N   0  0  0  0  0  0  0  0  0  0  0  0
   -4.6864    3.0000   -0.2751 C   0  0  0  0  0  0  0  0  0  0  0  0
  -12.1182   -2.5566   -0.2086 C   0  0  0  0  0  0  0  0  0  0  0  0
  -10.8676   -1.8663   -0.2329 C   0  0  0  0  0  0  0  0  0  0  0  0
  -11.1484   -0.5057   -0.2158 C   0  0  0  0  0  0  0  0  0  0  0  0
  -12.5368   -0.3173   -0.1822 O   0  0  0  0  0  0  0  0  0  0  0  0
  -13.1266   -1.5984   -0.1769 C   0  0  0  0  0  0  0  0  0  0  0  0
  -14.5648   -1.6733   -0.1375 C   0  0  0  0  0  0  0  0  0  0  0  0
  -15.3989   -0.5505   -0.1040 C   0  0  0  0  0  0  0  0  0  0  0  0
  -16.8229   -0.6352   -0.0592 C   0  0  0  0  0  0  0  0  0  0  0  0
  -17.5174   -1.8497   -0.0450 C   0  0  0  0  0  0  0  0  0  0  0  0
  -18.9534   -1.9504    0.0057 C   0  0  0  0  0  0  0  0  0  0  0  0
  -19.8354   -3.0263    0.0306 C   0  0  0  0  0  0  0  0  0  0  0  0
  -21.1607   -2.4966    0.0857 C   0  0  0  0  0  0  0  0  0  0  0  0
  -21.0499   -1.1117    0.0933 C   0  0  0  0  0  0  0  0  0  0  0  0
  -19.6966   -0.7514    0.0439 O   0  0  0  0  0  0  0  0  0  0  0  0
  -16.6924   -3.0335   -0.0816 C   0  0  0  0  0  0  0  0  0  0  0  0
  -17.0691   -4.3252   -0.0800 N   0  0  0  0  0  0  0  0  0  0  0  0
  -15.8457   -5.0553   -0.1250 O   0  0  0  0  0  0  0  0  0  0  0  0
  -14.7165   -4.1852   -0.1534 N   0  0  0  0  0  0  0  0  0  0  0  0
  -15.2429   -2.9472   -0.1268 C   0  0  0  0  0  0  0  0  0  0  0  0
  -23.3044    1.8074    0.2128 C   0  0  0  0  0  0  0  0  0  0  0  0
  -21.9592    1.3228    0.1483 C   0  0  0  0  0  0  0  0  0  0  0  0
  -22.0226   -0.0644    0.1419 C   0  0  0  0  0  0  0  0  0  0  0  0
  -23.3640   -0.4671    0.2003 O   0  0  0  0  0  0  0  0  0  0  0  0
  -24.1474    0.7024    0.2450 C   0  0  0  0  0  0  0  0  0  0  0  0
  -25.5776    0.5294    0.3151 C   0  0  0  0  0  0  0  0  0  0  0  0
  -26.1945   -0.7250    0.3350 C   0  0  0  0  0  0  0  0  0  0  0  0
  -27.6106   -0.8991    0.4080 C   0  0  0  0  0  0  0  0  0  0  0  0
  -28.5099    0.1682    0.4674 C   0  0  0  0  0  0  0  0  0  0  0  0
  -29.9432   -0.0108    0.5442 C   0  0  0  0  0  0  0  0  0  0  0  0
  -31.0218    0.8582    0.6204 C   0  0  0  0  0  0  0  0  0  0  0  0
  -32.2157    0.0533    0.6767 C   0  0  0  0  0  0  0  0  0  0  0  0
  -31.8156   -1.2648    0.6319 C   0  0  0  0  0  0  0  0  0  0  0  0
  -30.4238   -1.3356    0.5529 O   0  0  0  0  0  0  0  0  0  0  0  0
  -27.9132    1.4818    0.4499 C   0  0  0  0  0  0  0  0  0  0  0  0
  -28.5160    2.6847    0.4967 N   0  0  0  0  0  0  0  0  0  0  0  0
  -27.4435    3.6242    0.4487 O   0  0  0  0  0  0  0  0  0  0  0  0
  -26.1761    2.9727    0.3725 N   0  0  0  0  0  0  0  0  0  0  0  0
  -26.4717    1.6598    0.3739 C   0  0  0  0  0  0  0  0  0  0  0  0
   30.7592   -2.7840    0.6071 H   0  0  0  0  0  0  0  0  0  0  0  0
   33.1467   -1.4413    0.7524 H   0  0  0  0  0  0  0  0  0  0  0  0
   32.4528    1.2388    0.7362 H   0  0  0  0  0  0  0  0  0  0  0  0
   28.1189    1.2764    0.4917 H   0  0  0  0  0  0  0  0  0  0  0  0
   25.6583    1.1681    0.3553 H   0  0  0  0  0  0  0  0  0  0  0  0
   23.3937   -3.1158    0.2054 H   0  0  0  0  0  0  0  0  0  0  0  0
   20.8943   -2.0009    0.0855 H   0  0  0  0  0  0  0  0  0  0  0  0
   19.7508    4.0353    0.0756 H   0  0  0  0  0  0  0  0  0  0  0  0
   22.2348    2.8866    0.1768 H   0  0  0  0  0  0  0  0  0  0  0  0
   17.4000   -0.2054   -0.0489 H   0  0  0  0  0  0  0  0  0  0  0  0
   14.9369   -0.2495   -0.1421 H   0  0  0  0  0  0  0  0  0  0  0  0
   12.4315    3.9044   -0.1768 H   0  0  0  0  0  0  0  0  0  0  0  0
    9.9901    2.6675   -0.2662 H   0  0  0  0  0  0  0  0  0  0  0  0
    9.0668   -3.3775   -0.3988 H   0  0  0  0  0  0  0  0  0  0  0  0
   11.5200   -2.1637   -0.3253 H   0  0  0  0  0  0  0  0  0  0  0  0
    6.6179    0.8076   -0.3114 H   0  0  0  0  0  0  0  0  0  0  0  0
    4.1531    0.8084   -0.3325 H   0  0  0  0  0  0  0  0  0  0  0  0
    1.7123   -3.3807   -0.4657 H   0  0  0  0  0  0  0  0  0  0  0  0
   -0.7463   -2.1750   -0.4312 H   0  0  0  0  0  0  0  0  0  0  0  0
   -1.7348    3.8656   -0.2856 H   0  0  0  0  0  0  0  0  0  0  0  0
    0.7306    2.6741   -0.3301 H   0  0  0  0  0  0  0  0  0  0  0  0
   -4.1324   -0.3470   -0.3190 H   0  0  0  0  0  0  0  0  0  0  0  0
   -6.5961   -0.3833   -0.2902 H   0  0  0  0  0  0  0  0  0  0  0  0
   -9.1206    3.7547   -0.2225 H   0  0  0  0  0  0  0  0  0  0  0  0
  -11.5478    2.4857   -0.1953 H   0  0  0  0  0  0  0  0  0  0  0  0
  -12.2783   -3.6237   -0.2123 H   0  0  0  0  0  0  0  0  0  0  0  0
   -9.8806   -2.3016   -0.2591 H   0  0  0  0  0  0  0  0  0  0  0  0
  -14.9377    0.4318   -0.1107 H   0  0  0  0  0  0  0  0  0  0  0  0
  -17.3972    0.2852   -0.0331 H   0  0  0  0  0  0  0  0  0  0  0  0
  -19.5451   -4.0655    0.0109 H   0  0  0  0  0  0  0  0  0  0  0  0
  -22.0865   -3.0502    0.1168 H   0  0  0  0  0  0  0  0  0  0  0  0
  -23.6299    2.8361    0.2345 H   0  0  0  0  0  0  0  0  0  0  0  0
  -21.0552    1.9109    0.1112 H   0  0  0  0  0  0  0  0  0  0  0  0
  -25.5646   -1.6079    0.2937 H   0  0  0  0  0  0  0  0  0  0  0  0
  -28.0102   -1.9082    0.4189 H   0  0  0  0  0  0  0  0  0  0  0  0
  -30.9557    1.9359    0.6331 H   0  0  0  0  0  0  0  0  0  0  0  0
  -33.2334    0.4095    0.7422 H   0  0  0  0  0  0  0  0  0  0  0  0
  -32.3356   -2.2094    0.6454 H   0  0  0  0  0  0  0  0  0  0  0  0
  1  2  1  0
  2  3  2  0
  3  4  1  0
  4  5  1  0
  5  6  1  0
  6  7  2  0
  7  8  1  0
  8  9  2  0
  9 10  1  0
 10 11  2  0
 11 12  1  0
 12 13  2  0
 13 14  1  0
  9 15  1  0
 15 16  2  0
 16 17  1  0
 17 18  1  0
 18 19  2  0
 20 21  1  0
 21 22  2  0
 22 23  1  0
 23 24  1  0
 24 25  1  0
 25 26  2  0
 26 27  1  0
 27 28  2  0
 28 29  1  0
 29 30  2  0
 30 31  1  0
 31 32  2  0
 32 33  1  0
 28 34  1  0
 34 35  2  0
 35 36  1  0
 36 37  1  0
 37 38  2  0
 39 40  1  0
 40 41  2  0
 41 42  1  0
 42 43  1  0
 43 44  1  0
 44 45  2  0
 45 46  1  0
 46 47  2  0
 47 48  1  0
 48 49  2  0
 49 50  1  0
 50 51  2  0
 51 52  1  0
 47 53  1  0
 53 54  2  0
 54 55  1  0
 55 56  1  0
 56 57  2  0
 58 59  1  0
 59 60  2  0
 60 61  1  0
 61 62  1  0
 62 63  1  0
 63 64  2  0
 64 65  1  0
 65 66  2  0
 66 67  1  0
 67 68  2  0
 68 69  1  0
 69 70  2  0
 70 71  1  0
 66 72  1  0
 72 73  2  0
 73 74  1  0
 74 75  1  0
 75 76  2  0
 77 78  1  0
 78 79  2  0
 79 80  1  0
 80 81  1  0
 81 82  1  0
 82 83  2  0
 83 84  1  0
 84 85  2  0
 85 86  1  0
 86 87  2  0
 87 88  1  0
 88 89  2  0
 89 90  1  0
 85 91  1  0
 91 92  2  0
 92 93  1  0
 93 94  1  0
 94 95  2  0
 96 97  1  0
 97 98  2  0
 98 99  1  0
 99100  1  0
100101  1  0
101102  2  0
102103  1  0
103104  2  0
104105  1  0
105106  2  0
106107  1  0
107108  2  0
108109  1  0
104110  1  0
110111  2  0
111112  1  0
112113  1  0
113114  2  0
  5  1  2  0
 19  6  1  0
 24 20  2  0
 38 25  1  0
 43 39  2  0
 57 44  1  0
 62 58  2  0
 76 63  1  0
 81 77  2  0
 95 82  1  0
100 96  2  0
114101  1  0
 14 10  1  0
 19 15  1  0
 33 29  1  0
 38 34  1  0
 52 48  1  0
 57 53  1  0
 71 67  1  0
 76 72  1  0
 90 86  1  0
 95 91  1  0
109105  1  0
114110  1  0
 13 22  1  0
 32 41  1  0
 51 60  1  0
 70 79  1  0
 89 98  1  0
  1115  1  0
  2116  1  0
  3117  1  0
  7118  1  0
  8119  1  0
 11120  1  0
 12121  1  0
 20122  1  0
 21123  1  0
 26124  1  0
 27125  1  0
 30126  1  0
 31127  1  0
 39128  1  0
 40129  1  0
 45130  1  0
 46131  1  0
 49132  1  0
 50133  1  0
 58134  1  0
 59135  1  0
 64136  1  0
 65137  1  0
 68138  1  0
 69139  1  0
 77140  1  0
 78141  1  0
 83142  1  0
 84143  1  0
 87144  1  0
 88145  1  0
 96146  1  0
 97147  1  0
102148  1  0
103149  1  0
106150  1  0
107151  1  0
108152  1  0
M  END
>  <_StereochemDone>  (1) 
1

>  <File>  (1) 
A-DAD_Hexamer/A-OOO6uv.gjf

>  <System_Code>  (1) 
OOO

>  <Unit_Type>  (1) 
Hexamer

>  <Family>  (1) 
benzochalcogenadiazole

>  <InChIKey>  (1) 
UYJXYXSIGTVTOU-UHFFFAOYSA-N

$$$$
A-OSeO6uv
     RDKit          3D

152175  0  0  0  0  0  0  0  0999 V2000
  -30.7663   -1.3778    0.0057 C   0  0  0  0  0  0  0  0  0  0  0  0
  -32.0105   -0.6429    0.0063 C   0  0  0  0  0  0  0  0  0  0  0  0
  -31.6883    0.7070    0.0062 C   0  0  0  0  0  0  0  0  0  0  0  0
  -30.2890    0.8680    0.0055 O   0  0  0  0  0  0  0  0  0  0  0  0
  -29.7256   -0.4448    0.0052 C   0  0  0  0  0  0  0  0  0  0  0  0
  -28.2775   -0.5280    0.0045 C   0  0  0  0  0  0  0  0  0  0  0  0
  -27.4706    0.6268    0.0041 C   0  0  0  0  0  0  0  0  0  0  0  0
  -26.0466    0.5775    0.0034 C   0  0  0  0  0  0  0  0  0  0  0  0
  -25.3223   -0.6321    0.0031 C   0  0  0  0  0  0  0  0  0  0  0  0
  -23.8768   -0.6540    0.0024 C   0  0  0  0  0  0  0  0  0  0  0  0
  -22.9051   -1.6659    0.0020 C   0  0  0  0  0  0  0  0  0  0  0  0
  -21.6162   -1.0389    0.0014 C   0  0  0  0  0  0  0  0  0  0  0  0
  -21.8252    0.3467    0.0015 C   0  0  0  0  0  0  0  0  0  0  0  0
  -23.2164    0.6137    0.0021 O   0  0  0  0  0  0  0  0  0  0  0  0
  -26.0988   -1.8669    0.0035 C   0  0  0  0  0  0  0  0  0  0  0  0
  -25.5266   -3.1030    0.0032 N   0  0  0  0  0  0  0  0  0  0  0  0
  -26.9358   -4.3725    0.0039 Se  0  0  0  0  0  2  0  0  0  0  0  0
  -28.2513   -3.0061    0.0045 N   0  0  0  0  0  0  0  0  0  0  0  0
  -27.5911   -1.8134    0.0042 C   0  0  0  0  0  0  0  0  0  0  0  0
  -19.8631    3.4868    0.0006 C   0  0  0  0  0  0  0  0  0  0  0  0
  -21.1532    2.8628    0.0011 C   0  0  0  0  0  0  0  0  0  0  0  0
  -20.9474    1.4764    0.0011 C   0  0  0  0  0  0  0  0  0  0  0  0
  -19.5570    1.2064    0.0006 O   0  0  0  0  0  0  0  0  0  0  0  0
  -18.8931    2.4725    0.0003 C   0  0  0  0  0  0  0  0  0  0  0  0
  -17.4490    2.4455   -0.0002 C   0  0  0  0  0  0  0  0  0  0  0  0
  -16.7302    1.2304   -0.0005 C   0  0  0  0  0  0  0  0  0  0  0  0
  -15.3093    1.1731   -0.0009 C   0  0  0  0  0  0  0  0  0  0  0  0
  -14.4945    2.3260   -0.0013 C   0  0  0  0  0  0  0  0  0  0  0  0
  -13.0528    2.2351   -0.0017 C   0  0  0  0  0  0  0  0  0  0  0  0
  -12.0029    3.1666   -0.0021 C   0  0  0  0  0  0  0  0  0  0  0  0
  -10.7684    2.4392   -0.0024 C   0  0  0  0  0  0  0  0  0  0  0  0
  -11.0868    1.0741   -0.0023 C   0  0  0  0  0  0  0  0  0  0  0  0
  -12.4948    0.9189   -0.0019 O   0  0  0  0  0  0  0  0  0  0  0  0
  -15.1744    3.6161   -0.0011 C   0  0  0  0  0  0  0  0  0  0  0  0
  -14.5096    4.8051   -0.0014 N   0  0  0  0  0  0  0  0  0  0  0  0
  -15.8186    6.1786   -0.0009 Se  0  0  0  0  0  2  0  0  0  0  0  0
  -17.2331    4.9149   -0.0004 N   0  0  0  0  0  0  0  0  0  0  0  0
  -16.6664    3.6762   -0.0006 C   0  0  0  0  0  0  0  0  0  0  0  0
   -9.3931   -2.2177   -0.0027 C   0  0  0  0  0  0  0  0  0  0  0  0
  -10.6259   -1.4878   -0.0025 C   0  0  0  0  0  0  0  0  0  0  0  0
  -10.3046   -0.1234   -0.0025 C   0  0  0  0  0  0  0  0  0  0  0  0
   -8.8964    0.0291   -0.0027 O   0  0  0  0  0  0  0  0  0  0  0  0
   -8.3412   -1.2885   -0.0029 C   0  0  0  0  0  0  0  0  0  0  0  0
   -6.8999   -1.3836   -0.0031 C   0  0  0  0  0  0  0  0  0  0  0  0
   -6.0809   -0.2336   -0.0032 C   0  0  0  0  0  0  0  0  0  0  0  0
   -4.6602   -0.2962   -0.0034 C   0  0  0  0  0  0  0  0  0  0  0  0
   -3.9459   -1.5139   -0.0035 C   0  0  0  0  0  0  0  0  0  0  0  0
   -2.5019   -1.5470   -0.0036 C   0  0  0  0  0  0  0  0  0  0  0  0
   -1.5371   -2.5665   -0.0037 C   0  0  0  0  0  0  0  0  0  0  0  0
   -0.2441   -1.9493   -0.0038 C   0  0  0  0  0  0  0  0  0  0  0  0
   -0.4425   -0.5617   -0.0037 C   0  0  0  0  0  0  0  0  0  0  0  0
   -1.8317   -0.2842   -0.0037 O   0  0  0  0  0  0  0  0  0  0  0  0
   -4.7328   -2.7418   -0.0034 C   0  0  0  0  0  0  0  0  0  0  0  0
   -4.1707   -3.9826   -0.0035 N   0  0  0  0  0  0  0  0  0  0  0  0
   -5.5896   -5.2411   -0.0034 Se  0  0  0  0  0  2  0  0  0  0  0  0
   -6.8935   -3.8629   -0.0032 N   0  0  0  0  0  0  0  0  0  0  0  0
   -6.2245   -2.6763   -0.0032 C   0  0  0  0  0  0  0  0  0  0  0  0
    1.5371    2.5665   -0.0038 C   0  0  0  0  0  0  0  0  0  0  0  0
    0.2441    1.9494   -0.0038 C   0  0  0  0  0  0  0  0  0  0  0  0
    0.4425    0.5617   -0.0037 C   0  0  0  0  0  0  0  0  0  0  0  0
    1.8317    0.2843   -0.0036 O   0  0  0  0  0  0  0  0  0  0  0  0
    2.5019    1.5470   -0.0036 C   0  0  0  0  0  0  0  0  0  0  0  0
    3.9459    1.5140   -0.0035 C   0  0  0  0  0  0  0  0  0  0  0  0
    4.6602    0.2962   -0.0033 C   0  0  0  0  0  0  0  0  0  0  0  0
    6.0809    0.2336   -0.0031 C   0  0  0  0  0  0  0  0  0  0  0  0
    6.8999    1.3836   -0.0031 C   0  0  0  0  0  0  0  0  0  0  0  0
    8.3412    1.2885   -0.0028 C   0  0  0  0  0  0  0  0  0  0  0  0
    9.3931    2.2178   -0.0026 C   0  0  0  0  0  0  0  0  0  0  0  0
   10.6259    1.4878   -0.0023 C   0  0  0  0  0  0  0  0  0  0  0  0
   10.3046    0.1234   -0.0023 C   0  0  0  0  0  0  0  0  0  0  0  0
    8.8964   -0.0290   -0.0026 O   0  0  0  0  0  0  0  0  0  0  0  0
    6.2245    2.6763   -0.0032 C   0  0  0  0  0  0  0  0  0  0  0  0
    6.8935    3.8629   -0.0032 N   0  0  0  0  0  0  0  0  0  0  0  0
    5.5896    5.2412   -0.0035 Se  0  0  0  0  0  2  0  0  0  0  0  0
    4.1707    3.9827   -0.0036 N   0  0  0  0  0  0  0  0  0  0  0  0
    4.7328    2.7418   -0.0035 C   0  0  0  0  0  0  0  0  0  0  0  0
   12.0029   -3.1666   -0.0017 C   0  0  0  0  0  0  0  0  0  0  0  0
   10.7684   -2.4392   -0.0021 C   0  0  0  0  0  0  0  0  0  0  0  0
   11.0868   -1.0741   -0.0021 C   0  0  0  0  0  0  0  0  0  0  0  0
   12.4948   -0.9189   -0.0016 O   0  0  0  0  0  0  0  0  0  0  0  0
   13.0528   -2.2351   -0.0014 C   0  0  0  0  0  0  0  0  0  0  0  0
   14.4945   -2.3259   -0.0010 C   0  0  0  0  0  0  0  0  0  0  0  0
   15.3093   -1.1731   -0.0007 C   0  0  0  0  0  0  0  0  0  0  0  0
   16.7302   -1.2304   -0.0002 C   0  0  0  0  0  0  0  0  0  0  0  0
   17.4490   -2.4455    0.0001 C   0  0  0  0  0  0  0  0  0  0  0  0
   18.8931   -2.4725    0.0006 C   0  0  0  0  0  0  0  0  0  0  0  0
   19.8631   -3.4868    0.0009 C   0  0  0  0  0  0  0  0  0  0  0  0
   21.1531   -2.8628    0.0014 C   0  0  0  0  0  0  0  0  0  0  0  0
   20.9474   -1.4764    0.0013 C   0  0  0  0  0  0  0  0  0  0  0  0
   19.5570   -1.2064    0.0008 O   0  0  0  0  0  0  0  0  0  0  0  0
   16.6664   -3.6762   -0.0002 C   0  0  0  0  0  0  0  0  0  0  0  0
   17.2331   -4.9149    0.0000 N   0  0  0  0  0  0  0  0  0  0  0  0
   15.8186   -6.1786   -0.0005 Se  0  0  0  0  0  2  0  0  0  0  0  0
   14.5096   -4.8051   -0.0009 N   0  0  0  0  0  0  0  0  0  0  0  0
   15.1744   -3.6160   -0.0007 C   0  0  0  0  0  0  0  0  0  0  0  0
   22.9051    1.6659    0.0021 C   0  0  0  0  0  0  0  0  0  0  0  0
   21.6162    1.0389    0.0015 C   0  0  0  0  0  0  0  0  0  0  0  0
   21.8252   -0.3468    0.0017 C   0  0  0  0  0  0  0  0  0  0  0  0
   23.2164   -0.6137    0.0023 O   0  0  0  0  0  0  0  0  0  0  0  0
   23.8768    0.6540    0.0025 C   0  0  0  0  0  0  0  0  0  0  0  0
   25.3223    0.6321    0.0031 C   0  0  0  0  0  0  0  0  0  0  0  0
   26.0466   -0.5775    0.0035 C   0  0  0  0  0  0  0  0  0  0  0  0
   27.4706   -0.6268    0.0042 C   0  0  0  0  0  0  0  0  0  0  0  0
   28.2775    0.5279    0.0045 C   0  0  0  0  0  0  0  0  0  0  0  0
   29.7256    0.4448    0.0052 C   0  0  0  0  0  0  0  0  0  0  0  0
   30.7663    1.3777    0.0056 C   0  0  0  0  0  0  0  0  0  0  0  0
   32.0105    0.6428    0.0062 C   0  0  0  0  0  0  0  0  0  0  0  0
   31.6883   -0.7071    0.0062 C   0  0  0  0  0  0  0  0  0  0  0  0
   30.2890   -0.8681    0.0055 O   0  0  0  0  0  0  0  0  0  0  0  0
   27.5911    1.8134    0.0041 C   0  0  0  0  0  0  0  0  0  0  0  0
   28.2513    3.0061    0.0044 N   0  0  0  0  0  0  0  0  0  0  0  0
   26.9358    4.3724    0.0037 Se  0  0  0  0  0  2  0  0  0  0  0  0
   25.5267    3.1030    0.0032 N   0  0  0  0  0  0  0  0  0  0  0  0
   26.0988    1.8669    0.0035 C   0  0  0  0  0  0  0  0  0  0  0  0
  -30.6217   -2.4537    0.0056 H   0  0  0  0  0  0  0  0  0  0  0  0
  -33.0135   -1.0618    0.0068 H   0  0  0  0  0  0  0  0  0  0  0  0
  -32.2650    1.6263    0.0065 H   0  0  0  0  0  0  0  0  0  0  0  0
  -27.9694    1.5993    0.0044 H   0  0  0  0  0  0  0  0  0  0  0  0
  -25.4821    1.5133    0.0032 H   0  0  0  0  0  0  0  0  0  0  0  0
  -23.1362   -2.7266    0.0021 H   0  0  0  0  0  0  0  0  0  0  0  0
  -20.6451   -1.5258    0.0010 H   0  0  0  0  0  0  0  0  0  0  0  0
  -19.6298    4.5471    0.0005 H   0  0  0  0  0  0  0  0  0  0  0  0
  -22.1231    3.3520    0.0015 H   0  0  0  0  0  0  0  0  0  0  0  0
  -17.3009    0.2984   -0.0002 H   0  0  0  0  0  0  0  0  0  0  0  0
  -14.8158    0.1980   -0.0011 H   0  0  0  0  0  0  0  0  0  0  0  0
  -12.1484    4.2424   -0.0020 H   0  0  0  0  0  0  0  0  0  0  0  0
   -9.7617    2.8475   -0.0027 H   0  0  0  0  0  0  0  0  0  0  0  0
   -9.2498   -3.2938   -0.0028 H   0  0  0  0  0  0  0  0  0  0  0  0
  -11.6335   -1.8938   -0.0023 H   0  0  0  0  0  0  0  0  0  0  0  0
   -6.5709    0.7433   -0.0031 H   0  0  0  0  0  0  0  0  0  0  0  0
   -4.0862    0.6339   -0.0034 H   0  0  0  0  0  0  0  0  0  0  0  0
   -1.7763   -3.6254   -0.0037 H   0  0  0  0  0  0  0  0  0  0  0  0
    0.7233   -2.4435   -0.0038 H   0  0  0  0  0  0  0  0  0  0  0  0
    1.7763    3.6255   -0.0038 H   0  0  0  0  0  0  0  0  0  0  0  0
   -0.7233    2.4435   -0.0039 H   0  0  0  0  0  0  0  0  0  0  0  0
    4.0862   -0.6338   -0.0034 H   0  0  0  0  0  0  0  0  0  0  0  0
    6.5709   -0.7433   -0.0030 H   0  0  0  0  0  0  0  0  0  0  0  0
    9.2498    3.2939   -0.0027 H   0  0  0  0  0  0  0  0  0  0  0  0
   11.6335    1.8939   -0.0022 H   0  0  0  0  0  0  0  0  0  0  0  0
   12.1484   -4.2424   -0.0017 H   0  0  0  0  0  0  0  0  0  0  0  0
    9.7617   -2.8475   -0.0024 H   0  0  0  0  0  0  0  0  0  0  0  0
   14.8158   -0.1980   -0.0009 H   0  0  0  0  0  0  0  0  0  0  0  0
   17.3009   -0.2984   -0.0000 H   0  0  0  0  0  0  0  0  0  0  0  0
   19.6298   -4.5471    0.0009 H   0  0  0  0  0  0  0  0  0  0  0  0
   22.1231   -3.3520    0.0018 H   0  0  0  0  0  0  0  0  0  0  0  0
   23.1362    2.7266    0.0021 H   0  0  0  0  0  0  0  0  0  0  0  0
   20.6451    1.5257    0.0011 H   0  0  0  0  0  0  0  0  0  0  0  0
   25.4821   -1.5133    0.0033 H   0  0  0  0  0  0  0  0  0  0  0  0
   27.9694   -1.5994    0.0044 H   0  0  0  0  0  0  0  0  0  0  0  0
   30.6218    2.4536    0.0055 H   0  0  0  0  0  0  0  0  0  0  0  0
   33.0135    1.0617    0.0067 H   0  0  0  0  0  0  0  0  0  0  0  0
   32.2650   -1.6264    0.0065 H   0  0  0  0  0  0  0  0  0  0  0  0
  1  2  1  0
  2  3  2  0
  3  4  1  0
  4  5  1  0
  5  6  1  0
  6  7  2  0
  7  8  1  0
  8  9  2  0
  9 10  1  0
 10 11  2  0
 11 12  1  0
 12 13  2  0
 13 14  1  0
  9 15  1  0
 15 16  2  0
 16 17  1  0
 17 18  1  0
 18 19  2  0
 20 21  1  0
 21 22  2  0
 22 23  1  0
 23 24  1  0
 24 25  1  0
 25 26  2  0
 26 27  1  0
 27 28  2  0
 28 29  1  0
 29 30  2  0
 30 31  1  0
 31 32  2  0
 32 33  1  0
 28 34  1  0
 34 35  2  0
 35 36  1  0
 36 37  1  0
 37 38  2  0
 39 40  1  0
 40 41  2  0
 41 42  1  0
 42 43  1  0
 43 44  1  0
 44 45  2  0
 45 46  1  0
 46 47  2  0
 47 48  1  0
 48 49  2  0
 49 50  1  0
 50 51  2  0
 51 52  1  0
 47 53  1  0
 53 54  2  0
 54 55  1  0
 55 56  1  0
 56 57  2  0
 58 59  1  0
 59 60  2  0
 60 61  1  0
 61 62  1  0
 62 63  1  0
 63 64  2  0
 64 65  1  0
 65 66  2  0
 66 67  1  0
 67 68  2  0
 68 69  1  0
 69 70  2  0
 70 71  1  0
 66 72  1  0
 72 73  2  0
 73 74  1  0
 74 75  1  0
 75 76  2  0
 77 78  1  0
 78 79  2  0
 79 80  1  0
 80 81  1  0
 81 82  1  0
 82 83  2  0
 83 84  1  0
 84 85  2  0
 85 86  1  0
 86 87  2  0
 87 88  1  0
 88 89  2  0
 89 90  1  0
 85 91  1  0
 91 92  2  0
 92 93  1  0
 93 94  1  0
 94 95  2  0
 96 97  1  0
 97 98  2  0
 98 99  1  0
 99100  1  0
100101  1  0
101102  2  0
102103  1  0
103104  2  0
104105  1  0
105106  2  0
106107  1  0
107108  2  0
108109  1  0
104110  1  0
110111  2  0
111112  1  0
112113  1  0
113114  2  0
  5  1  2  0
 19  6  1  0
 24 20  2  0
 38 25  1  0
 43 39  2  0
 57 44  1  0
 62 58  2  0
 76 63  1  0
 81 77  2  0
 95 82  1  0
100 96  2  0
114101  1  0
 14 10  1  0
 19 15  1  0
 33 29  1  0
 38 34  1  0
 52 48  1  0
 57 53  1  0
 71 67  1  0
 76 72  1  0
 90 86  1  0
 95 91  1  0
109105  1  0
114110  1  0
 13 22  1  0
 32 41  1  0
 51 60  1  0
 70 79  1  0
 89 98  1  0
  1115  1  0
  2116  1  0
  3117  1  0
  7118  1  0
  8119  1  0
 11120  1  0
 12121  1  0
 20122  1  0
 21123  1  0
 26124  1  0
 27125  1  0
 30126  1  0
 31127  1  0
 39128  1  0
 40129  1  0
 45130  1  0
 46131  1  0
 49132  1  0
 50133  1  0
 58134  1  0
 59135  1  0
 64136  1  0
 65137  1  0
 68138  1  0
 69139  1  0
 77140  1  0
 78141  1  0
 83142  1  0
 84143  1  0
 87144  1  0
 88145  1  0
 96146  1  0
 97147  1  0
102148  1  0
103149  1  0
106150  1  0
107151  1  0
108152  1  0
M  END
>  <_StereochemDone>  (2) 
1

>  <File>  (2) 
A-DAD_Hexamer/A-OSeO6uv.gjf

>  <System_Code>  (2) 
OSeO

>  <Unit_Type>  (2) 
Hexamer

>  <Family>  (2) 
benzochalcogenadiazole

>  <InChIKey>  (2) 
AYWVZVKSACUJSA-UHFFFAOYSA-N

$$$$
A-OTeO6uv
     RDKit          3D

152175  0  0  0  0  0  0  0  0999 V2000
   30.7340   -0.8532    0.1669 C   0  0  0  0  0  0  0  0  0  0  0  0
   31.9110   -0.0214    0.2080 C   0  0  0  0  0  0  0  0  0  0  0  0
   31.4796    1.2859    0.2303 C   0  0  0  0  0  0  0  0  0  0  0  0
   30.0854    1.3245    0.2058 O   0  0  0  0  0  0  0  0  0  0  0  0
   29.6308   -0.0134    0.1661 C   0  0  0  0  0  0  0  0  0  0  0  0
   28.1923   -0.2047    0.1352 C   0  0  0  0  0  0  0  0  0  0  0  0
   27.3203    0.8813    0.1456 C   0  0  0  0  0  0  0  0  0  0  0  0
   25.9029    0.7408    0.1176 C   0  0  0  0  0  0  0  0  0  0  0  0
   25.2623   -0.4963    0.0766 C   0  0  0  0  0  0  0  0  0  0  0  0
   23.8189   -0.5942    0.0521 C   0  0  0  0  0  0  0  0  0  0  0  0
   22.8998   -1.6374    0.0169 C   0  0  0  0  0  0  0  0  0  0  0  0
   21.5872   -1.0643    0.0126 C   0  0  0  0  0  0  0  0  0  0  0  0
   21.7407    0.3155    0.0451 C   0  0  0  0  0  0  0  0  0  0  0  0
   23.1069    0.6271    0.0692 O   0  0  0  0  0  0  0  0  0  0  0  0
   26.1066   -1.6869    0.0619 C   0  0  0  0  0  0  0  0  0  0  0  0
   25.5973   -2.9279    0.0234 N   0  0  0  0  0  0  0  0  0  0  0  0
   27.1190   -4.2647    0.0146 Te  0  0  0  0  0  2  0  0  0  0  0  0
   28.3473   -2.6545    0.0804 N   0  0  0  0  0  0  0  0  0  0  0  0
   27.6017   -1.5378    0.0926 C   0  0  0  0  0  0  0  0  0  0  0  0
   19.7353    3.4076    0.0841 C   0  0  0  0  0  0  0  0  0  0  0  0
   21.0280    2.7974    0.0837 C   0  0  0  0  0  0  0  0  0  0  0  0
   20.8342    1.4225    0.0584 C   0  0  0  0  0  0  0  0  0  0  0  0
   19.4603    1.1473    0.0440 O   0  0  0  0  0  0  0  0  0  0  0  0
   18.7848    2.3918    0.0593 C   0  0  0  0  0  0  0  0  0  0  0  0
   17.3398    2.3551    0.0473 C   0  0  0  0  0  0  0  0  0  0  0  0
   16.6364    1.1501    0.0239 C   0  0  0  0  0  0  0  0  0  0  0  0
   15.2146    1.0809    0.0122 C   0  0  0  0  0  0  0  0  0  0  0  0
   14.3960    2.2111    0.0228 C   0  0  0  0  0  0  0  0  0  0  0  0
   12.9538    2.1030    0.0108 C   0  0  0  0  0  0  0  0  0  0  0  0
   11.9031    3.0151    0.0149 C   0  0  0  0  0  0  0  0  0  0  0  0
   10.6800    2.2746   -0.0044 C   0  0  0  0  0  0  0  0  0  0  0  0
   11.0148    0.9265   -0.0196 C   0  0  0  0  0  0  0  0  0  0  0  0
   12.4104    0.7959   -0.0103 O   0  0  0  0  0  0  0  0  0  0  0  0
   15.0551    3.5138    0.0468 C   0  0  0  0  0  0  0  0  0  0  0  0
   14.3686    4.6671    0.0583 N   0  0  0  0  0  0  0  0  0  0  0  0
   15.6758    6.2141    0.0926 Te  0  0  0  0  0  2  0  0  0  0  0  0
   17.1257    4.8015    0.0827 N   0  0  0  0  0  0  0  0  0  0  0  0
   16.5554    3.5868    0.0598 C   0  0  0  0  0  0  0  0  0  0  0  0
    9.3188   -2.3506   -0.0728 C   0  0  0  0  0  0  0  0  0  0  0  0
   10.5531   -1.6265   -0.0535 C   0  0  0  0  0  0  0  0  0  0  0  0
   10.2369   -0.2741   -0.0412 C   0  0  0  0  0  0  0  0  0  0  0  0
    8.8431   -0.1257   -0.0528 O   0  0  0  0  0  0  0  0  0  0  0  0
    8.2812   -1.4238   -0.0720 C   0  0  0  0  0  0  0  0  0  0  0  0
    6.8374   -1.5033   -0.0861 C   0  0  0  0  0  0  0  0  0  0  0  0
    6.0460   -0.3539   -0.0824 C   0  0  0  0  0  0  0  0  0  0  0  0
    4.6238   -0.3894   -0.0955 C   0  0  0  0  0  0  0  0  0  0  0  0
    3.8916   -1.5773   -0.1129 C   0  0  0  0  0  0  0  0  0  0  0  0
    2.4457   -1.5724   -0.1241 C   0  0  0  0  0  0  0  0  0  0  0  0
    1.4603   -2.5546   -0.1356 C   0  0  0  0  0  0  0  0  0  0  0  0
    0.1888   -1.8990   -0.1408 C   0  0  0  0  0  0  0  0  0  0  0  0
    0.4304   -0.5315   -0.1328 C   0  0  0  0  0  0  0  0  0  0  0  0
    1.8137   -0.3062   -0.1221 O   0  0  0  0  0  0  0  0  0  0  0  0
    4.6457   -2.8273   -0.1185 C   0  0  0  0  0  0  0  0  0  0  0  0
    4.0463   -4.0281   -0.1357 N   0  0  0  0  0  0  0  0  0  0  0  0
    5.4639   -5.4744   -0.1375 Te  0  0  0  0  0  2  0  0  0  0  0  0
    6.8077   -3.9586   -0.1113 N   0  0  0  0  0  0  0  0  0  0  0  0
    6.1479   -2.7897   -0.1050 C   0  0  0  0  0  0  0  0  0  0  0  0
   -1.4490    2.6424   -0.1411 C   0  0  0  0  0  0  0  0  0  0  0  0
   -0.1777    1.9867   -0.1361 C   0  0  0  0  0  0  0  0  0  0  0  0
   -0.4197    0.6191   -0.1349 C   0  0  0  0  0  0  0  0  0  0  0  0
   -1.8031    0.3942   -0.1384 O   0  0  0  0  0  0  0  0  0  0  0  0
   -2.4347    1.6605   -0.1420 C   0  0  0  0  0  0  0  0  0  0  0  0
   -3.8804    1.6661   -0.1438 C   0  0  0  0  0  0  0  0  0  0  0  0
   -4.6133    0.4788   -0.1345 C   0  0  0  0  0  0  0  0  0  0  0  0
   -6.0357    0.4441   -0.1335 C   0  0  0  0  0  0  0  0  0  0  0  0
   -6.8267    1.5939   -0.1425 C   0  0  0  0  0  0  0  0  0  0  0  0
   -8.2708    1.5136   -0.1375 C   0  0  0  0  0  0  0  0  0  0  0  0
   -9.3104    2.4384   -0.1476 C   0  0  0  0  0  0  0  0  0  0  0  0
  -10.5436    1.7118   -0.1311 C   0  0  0  0  0  0  0  0  0  0  0  0
  -10.2247    0.3601   -0.1111 C   0  0  0  0  0  0  0  0  0  0  0  0
   -8.8306    0.2144   -0.1152 O   0  0  0  0  0  0  0  0  0  0  0  0
   -6.1363    2.8800   -0.1549 C   0  0  0  0  0  0  0  0  0  0  0  0
   -6.7952    4.0493   -0.1658 N   0  0  0  0  0  0  0  0  0  0  0  0
   -5.4500    5.5643   -0.1792 Te  0  0  0  0  0  2  0  0  0  0  0  0
   -4.0335    4.1170   -0.1655 N   0  0  0  0  0  0  0  0  0  0  0  0
   -4.6338    2.9167   -0.1548 C   0  0  0  0  0  0  0  0  0  0  0  0
  -11.8779   -2.9344   -0.0397 C   0  0  0  0  0  0  0  0  0  0  0  0
  -10.6584   -2.1889   -0.0653 C   0  0  0  0  0  0  0  0  0  0  0  0
  -10.9991   -0.8427   -0.0853 C   0  0  0  0  0  0  0  0  0  0  0  0
  -12.3951   -0.7176   -0.0733 O   0  0  0  0  0  0  0  0  0  0  0  0
  -12.9324   -2.0268   -0.0447 C   0  0  0  0  0  0  0  0  0  0  0  0
  -14.3730   -2.1453   -0.0261 C   0  0  0  0  0  0  0  0  0  0  0  0
  -15.2023   -1.0227   -0.0400 C   0  0  0  0  0  0  0  0  0  0  0  0
  -16.6234   -1.1056   -0.0199 C   0  0  0  0  0  0  0  0  0  0  0  0
  -17.3151   -2.3171    0.0160 C   0  0  0  0  0  0  0  0  0  0  0  0
  -18.7597   -2.3693    0.0364 C   0  0  0  0  0  0  0  0  0  0  0  0
  -19.6971   -3.3969    0.0710 C   0  0  0  0  0  0  0  0  0  0  0  0
  -20.9971   -2.8031    0.0767 C   0  0  0  0  0  0  0  0  0  0  0  0
  -20.8209   -1.4258    0.0454 C   0  0  0  0  0  0  0  0  0  0  0  0
  -19.4508   -1.1332    0.0198 O   0  0  0  0  0  0  0  0  0  0  0  0
  -16.5187   -3.5414    0.0325 C   0  0  0  0  0  0  0  0  0  0  0  0
  -17.0766   -4.7614    0.0673 N   0  0  0  0  0  0  0  0  0  0  0  0
  -15.6133   -6.1599    0.0773 Te  0  0  0  0  0  2  0  0  0  0  0  0
  -14.3219   -4.6005    0.0252 N   0  0  0  0  0  0  0  0  0  0  0  0
  -15.0196   -3.4539    0.0101 C   0  0  0  0  0  0  0  0  0  0  0  0
  -22.9464    1.5942    0.0167 C   0  0  0  0  0  0  0  0  0  0  0  0
  -21.6217    1.0487    0.0045 C   0  0  0  0  0  0  0  0  0  0  0  0
  -21.7460   -0.3341    0.0372 C   0  0  0  0  0  0  0  0  0  0  0  0
  -23.1055   -0.6737    0.0693 O   0  0  0  0  0  0  0  0  0  0  0  0
  -23.8431    0.5321    0.0565 C   0  0  0  0  0  0  0  0  0  0  0  0
  -25.2840    0.4008    0.0877 C   0  0  0  0  0  0  0  0  0  0  0  0
  -25.8938   -0.8520    0.1248 C   0  0  0  0  0  0  0  0  0  0  0  0
  -27.3069   -1.0277    0.1590 C   0  0  0  0  0  0  0  0  0  0  0  0
  -28.2056    0.0364    0.1595 C   0  0  0  0  0  0  0  0  0  0  0  0
  -29.6387   -0.1913    0.1961 C   0  0  0  0  0  0  0  0  0  0  0  0
  -30.7629    0.6196    0.2091 C   0  0  0  0  0  0  0  0  0  0  0  0
  -31.9182   -0.2423    0.2500 C   0  0  0  0  0  0  0  0  0  0  0  0
  -31.4530   -1.5385    0.2601 C   0  0  0  0  0  0  0  0  0  0  0  0
  -30.0585   -1.5407    0.2277 O   0  0  0  0  0  0  0  0  0  0  0  0
  -27.6482    1.3837    0.1215 C   0  0  0  0  0  0  0  0  0  0  0  0
  -28.4214    2.4817    0.1182 N   0  0  0  0  0  0  0  0  0  0  0  0
  -27.2340    4.1222    0.0574 Te  0  0  0  0  0  2  0  0  0  0  0  0
  -25.6790    2.8236    0.0474 N   0  0  0  0  0  0  0  0  0  0  0  0
  -26.1573    1.5703    0.0835 C   0  0  0  0  0  0  0  0  0  0  0  0
   30.6808   -1.9291    0.1410 H   0  0  0  0  0  0  0  0  0  0  0  0
   32.9386   -0.3547    0.2193 H   0  0  0  0  0  0  0  0  0  0  0  0
   31.9774    2.2421    0.2615 H   0  0  0  0  0  0  0  0  0  0  0  0
   27.7445    1.8797    0.1774 H   0  0  0  0  0  0  0  0  0  0  0  0
   25.2905    1.6367    0.1298 H   0  0  0  0  0  0  0  0  0  0  0  0
   23.1688   -2.6804   -0.0027 H   0  0  0  0  0  0  0  0  0  0  0  0
   20.6450   -1.5903   -0.0117 H   0  0  0  0  0  0  0  0  0  0  0  0
   19.4959    4.4577    0.1000 H   0  0  0  0  0  0  0  0  0  0  0  0
   21.9865    3.2930    0.0994 H   0  0  0  0  0  0  0  0  0  0  0  0
   17.2035    0.2247    0.0144 H   0  0  0  0  0  0  0  0  0  0  0  0
   14.7410    0.1045   -0.0056 H   0  0  0  0  0  0  0  0  0  0  0  0
   12.0319    4.0849    0.0303 H   0  0  0  0  0  0  0  0  0  0  0  0
    9.6752    2.6693   -0.0066 H   0  0  0  0  0  0  0  0  0  0  0  0
    9.1762   -3.4184   -0.0860 H   0  0  0  0  0  0  0  0  0  0  0  0
   11.5516   -2.0362   -0.0488 H   0  0  0  0  0  0  0  0  0  0  0  0
    6.5428    0.6110   -0.0688 H   0  0  0  0  0  0  0  0  0  0  0  0
    4.0790    0.5492   -0.0911 H   0  0  0  0  0  0  0  0  0  0  0  0
    1.6619   -3.6129   -0.1397 H   0  0  0  0  0  0  0  0  0  0  0  0
   -0.7861   -2.3624   -0.1501 H   0  0  0  0  0  0  0  0  0  0  0  0
   -1.6504    3.7006   -0.1439 H   0  0  0  0  0  0  0  0  0  0  0  0
    0.7970    2.4496   -0.1341 H   0  0  0  0  0  0  0  0  0  0  0  0
   -4.0692   -0.4602   -0.1267 H   0  0  0  0  0  0  0  0  0  0  0  0
   -6.5331   -0.5203   -0.1243 H   0  0  0  0  0  0  0  0  0  0  0  0
   -9.1700    3.5068   -0.1643 H   0  0  0  0  0  0  0  0  0  0  0  0
  -11.5432    2.1196   -0.1329 H   0  0  0  0  0  0  0  0  0  0  0  0
  -12.0024   -4.0039   -0.0194 H   0  0  0  0  0  0  0  0  0  0  0  0
   -9.6527   -2.5797   -0.0684 H   0  0  0  0  0  0  0  0  0  0  0  0
  -14.7379   -0.0420   -0.0670 H   0  0  0  0  0  0  0  0  0  0  0  0
  -17.1995   -0.1857   -0.0328 H   0  0  0  0  0  0  0  0  0  0  0  0
  -19.4444   -4.4438    0.0896 H   0  0  0  0  0  0  0  0  0  0  0  0
  -21.9493   -3.3102    0.1009 H   0  0  0  0  0  0  0  0  0  0  0  0
  -23.2368    2.6317   -0.0006 H   0  0  0  0  0  0  0  0  0  0  0  0
  -20.6911    1.5947   -0.0246 H   0  0  0  0  0  0  0  0  0  0  0  0
  -25.2594   -1.7324    0.1282 H   0  0  0  0  0  0  0  0  0  0  0  0
  -27.7061   -2.0365    0.1865 H   0  0  0  0  0  0  0  0  0  0  0  0
  -30.7378    1.6968    0.1911 H   0  0  0  0  0  0  0  0  0  0  0  0
  -32.9538    0.0640    0.2693 H   0  0  0  0  0  0  0  0  0  0  0  0
  -31.9257   -2.5072    0.2867 H   0  0  0  0  0  0  0  0  0  0  0  0
  1  2  1  0
  2  3  2  0
  3  4  1  0
  4  5  1  0
  5  6  1  0
  6  7  2  0
  7  8  1  0
  8  9  2  0
  9 10  1  0
 10 11  2  0
 11 12  1  0
 12 13  2  0
 13 14  1  0
  9 15  1  0
 15 16  2  0
 16 17  1  0
 17 18  1  0
 18 19  2  0
 20 21  1  0
 21 22  2  0
 22 23  1  0
 23 24  1  0
 24 25  1  0
 25 26  2  0
 26 27  1  0
 27 28  2  0
 28 29  1  0
 29 30  2  0
 30 31  1  0
 31 32  2  0
 32 33  1  0
 28 34  1  0
 34 35  2  0
 35 36  1  0
 36 37  1  0
 37 38  2  0
 39 40  1  0
 40 41  2  0
 41 42  1  0
 42 43  1  0
 43 44  1  0
 44 45  2  0
 45 46  1  0
 46 47  2  0
 47 48  1  0
 48 49  2  0
 49 50  1  0
 50 51  2  0
 51 52  1  0
 47 53  1  0
 53 54  2  0
 54 55  1  0
 55 56  1  0
 56 57  2  0
 58 59  1  0
 59 60  2  0
 60 61  1  0
 61 62  1  0
 62 63  1  0
 63 64  2  0
 64 65  1  0
 65 66  2  0
 66 67  1  0
 67 68  2  0
 68 69  1  0
 69 70  2  0
 70 71  1  0
 66 72  1  0
 72 73  2  0
 73 74  1  0
 74 75  1  0
 75 76  2  0
 77 78  1  0
 78 79  2  0
 79 80  1  0
 80 81  1  0
 81 82  1  0
 82 83  2  0
 83 84  1  0
 84 85  2  0
 85 86  1  0
 86 87  2  0
 87 88  1  0
 88 89  2  0
 89 90  1  0
 85 91  1  0
 91 92  2  0
 92 93  1  0
 93 94  1  0
 94 95  2  0
 96 97  1  0
 97 98  2  0
 98 99  1  0
 99100  1  0
100101  1  0
101102  2  0
102103  1  0
103104  2  0
104105  1  0
105106  2  0
106107  1  0
107108  2  0
108109  1  0
104110  1  0
110111  2  0
111112  1  0
112113  1  0
113114  2  0
  5  1  2  0
 19  6  1  0
 24 20  2  0
 38 25  1  0
 43 39  2  0
 57 44  1  0
 62 58  2  0
 76 63  1  0
 81 77  2  0
 95 82  1  0
100 96  2  0
114101  1  0
 14 10  1  0
 19 15  1  0
 33 29  1  0
 38 34  1  0
 52 48  1  0
 57 53  1  0
 71 67  1  0
 76 72  1  0
 90 86  1  0
 95 91  1  0
109105  1  0
114110  1  0
 13 22  1  0
 32 41  1  0
 51 60  1  0
 70 79  1  0
 89 98  1  0
  1115  1  0
  2116  1  0
  3117  1  0
  7118  1  0
  8119  1  0
 11120  1  0
 12121  1  0
 20122  1  0
 21123  1  0
 26124  1  0
 27125  1  0
 30126  1  0
 31127  1  0
 39128  1  0
 40129  1  0
 45130  1  0
 46131  1  0
 49132  1  0
 50133  1  0
 58134  1  0
 59135  1  0
 64136  1  0
 65137  1  0
 68138  1  0
 69139  1  0
 77140  1  0
 78141  1  0
 83142  1  0
 84143  1  0
 87144  1  0
 88145  1  0
 96146  1  0
 97147  1  0
102148  1  0
103149  1  0
106150  1  0
107151  1  0
108152  1  0
M  END
>  <_StereochemDone>  (3) 
1

>  <File>  (3) 
A-DAD_Hexamer/A-OTeO6uv.gjf

>  <System_Code>  (3) 
OTeO

>  <Unit_Type>  (3) 
Hexamer

>  <Family>  (3) 
benzochalcogenadiazole

>  <InChIKey>  (3) 
OUDXVHGNUBUQCM-UHFFFAOYSA-N

$$$$
A-SOS6uv
     RDKit          3D

152175  0  0  0  0  0  0  0  0999 V2000
   34.1485   -1.9004    0.4413 C   0  0  0  0  0  0  0  0  0  0  0  0
   35.5407   -1.5503    0.4857 C   0  0  0  0  0  0  0  0  0  0  0  0
   35.7696   -0.1922    0.4997 C   0  0  0  0  0  0  0  0  0  0  0  0
   34.2420    0.7426    0.4585 S   0  0  0  0  0  0  0  0  0  0  0  0
   33.2865   -0.8119    0.4210 C   0  0  0  0  0  0  0  0  0  0  0  0
   31.8328   -0.7965    0.3757 C   0  0  0  0  0  0  0  0  0  0  0  0
   31.0667    0.3725    0.3595 C   0  0  0  0  0  0  0  0  0  0  0  0
   29.6402    0.3901    0.3144 C   0  0  0  0  0  0  0  0  0  0  0  0
   28.8459   -0.7609    0.2813 C   0  0  0  0  0  0  0  0  0  0  0  0
   27.3965   -0.7413    0.2357 C   0  0  0  0  0  0  0  0  0  0  0  0
   26.5066   -1.8106    0.2004 C   0  0  0  0  0  0  0  0  0  0  0  0
   25.1328   -1.4360    0.1605 C   0  0  0  0  0  0  0  0  0  0  0  0
   24.9038   -0.0639    0.1633 C   0  0  0  0  0  0  0  0  0  0  0  0
   26.4823    0.8361    0.2188 S   0  0  0  0  0  0  0  0  0  0  0  0
   29.5964   -1.9987    0.2968 C   0  0  0  0  0  0  0  0  0  0  0  0
   29.1337   -3.2622    0.2745 N   0  0  0  0  0  0  0  0  0  0  0  0
   30.3009   -4.0765    0.3048 O   0  0  0  0  0  0  0  0  0  0  0  0
   31.4865   -3.2903    0.3484 N   0  0  0  0  0  0  0  0  0  0  0  0
   31.0532   -2.0155    0.3429 C   0  0  0  0  0  0  0  0  0  0  0  0
   22.0498    2.3927    0.0929 C   0  0  0  0  0  0  0  0  0  0  0  0
   23.4241    2.0212    0.1337 C   0  0  0  0  0  0  0  0  0  0  0  0
   23.6560    0.6492    0.1296 C   0  0  0  0  0  0  0  0  0  0  0  0
   22.0798   -0.2542    0.0722 S   0  0  0  0  0  0  0  0  0  0  0  0
   21.1615    1.3211    0.0554 C   0  0  0  0  0  0  0  0  0  0  0  0
   19.7138    1.3352    0.0078 C   0  0  0  0  0  0  0  0  0  0  0  0
   18.9253    0.1781   -0.0295 C   0  0  0  0  0  0  0  0  0  0  0  0
   17.5012    0.1873   -0.0752 C   0  0  0  0  0  0  0  0  0  0  0  0
   16.7267    1.3543   -0.0882 C   0  0  0  0  0  0  0  0  0  0  0  0
   15.2786    1.3583   -0.1313 C   0  0  0  0  0  0  0  0  0  0  0  0
   14.4028    2.4410   -0.1458 C   0  0  0  0  0  0  0  0  0  0  0  0
   13.0240    2.0861   -0.1863 C   0  0  0  0  0  0  0  0  0  0  0  0
   12.7762    0.7169   -0.2050 C   0  0  0  0  0  0  0  0  0  0  0  0
   14.3422   -0.2055   -0.1710 S   0  0  0  0  0  0  0  0  0  0  0  0
   17.4991    2.5783   -0.0522 C   0  0  0  0  0  0  0  0  0  0  0  0
   17.0586    3.8499   -0.0551 N   0  0  0  0  0  0  0  0  0  0  0  0
   18.2401    4.6436   -0.0097 O   0  0  0  0  0  0  0  0  0  0  0  0
   19.4114    3.8350    0.0213 N   0  0  0  0  0  0  0  0  0  0  0  0
   18.9559    2.5690   -0.0051 C   0  0  0  0  0  0  0  0  0  0  0  0
    9.9060   -1.7167   -0.3078 C   0  0  0  0  0  0  0  0  0  0  0  0
   11.2820   -1.3534   -0.2804 C   0  0  0  0  0  0  0  0  0  0  0  0
   11.5214    0.0172   -0.2426 C   0  0  0  0  0  0  0  0  0  0  0  0
    9.9493    0.9300   -0.2410 S   0  0  0  0  0  0  0  0  0  0  0  0
    9.0225   -0.6401   -0.2923 C   0  0  0  0  0  0  0  0  0  0  0  0
    7.5741   -0.6511   -0.3089 C   0  0  0  0  0  0  0  0  0  0  0  0
    6.7838    0.5054   -0.2879 C   0  0  0  0  0  0  0  0  0  0  0  0
    5.3587    0.4953   -0.3000 C   0  0  0  0  0  0  0  0  0  0  0  0
    4.5854   -0.6723   -0.3339 C   0  0  0  0  0  0  0  0  0  0  0  0
    3.1369   -0.6824   -0.3414 C   0  0  0  0  0  0  0  0  0  0  0  0
    2.2699   -1.7718   -0.3698 C   0  0  0  0  0  0  0  0  0  0  0  0
    0.8884   -1.4289   -0.3648 C   0  0  0  0  0  0  0  0  0  0  0  0
    0.6281   -0.0621   -0.3327 C   0  0  0  0  0  0  0  0  0  0  0  0
    2.1865    0.8738   -0.3066 S   0  0  0  0  0  0  0  0  0  0  0  0
    5.3602   -1.8955   -0.3587 C   0  0  0  0  0  0  0  0  0  0  0  0
    4.9216   -3.1676   -0.3937 N   0  0  0  0  0  0  0  0  0  0  0  0
    6.1039   -3.9602   -0.4051 O   0  0  0  0  0  0  0  0  0  0  0  0
    7.2746   -3.1508   -0.3749 N   0  0  0  0  0  0  0  0  0  0  0  0
    6.8173   -1.8852   -0.3467 C   0  0  0  0  0  0  0  0  0  0  0  0
   -2.2934    2.3150   -0.2826 C   0  0  0  0  0  0  0  0  0  0  0  0
   -0.9084    1.9829   -0.2970 C   0  0  0  0  0  0  0  0  0  0  0  0
   -0.6379    0.6179   -0.3166 C   0  0  0  0  0  0  0  0  0  0  0  0
   -2.1889   -0.3300   -0.3168 S   0  0  0  0  0  0  0  0  0  0  0  0
   -3.1514    1.2182   -0.2901 C   0  0  0  0  0  0  0  0  0  0  0  0
   -4.5996    1.1891   -0.2768 C   0  0  0  0  0  0  0  0  0  0  0  0
   -5.3531    0.0083   -0.2829 C   0  0  0  0  0  0  0  0  0  0  0  0
   -6.7771   -0.0265   -0.2657 C   0  0  0  0  0  0  0  0  0  0  0  0
   -7.5872    1.1161   -0.2410 C   0  0  0  0  0  0  0  0  0  0  0  0
   -9.0350    1.0742   -0.2199 C   0  0  0  0  0  0  0  0  0  0  0  0
   -9.9456    2.1276   -0.1949 C   0  0  0  0  0  0  0  0  0  0  0  0
  -11.3126    1.7280   -0.1767 C   0  0  0  0  0  0  0  0  0  0  0  0
  -11.5161    0.3514   -0.1872 C   0  0  0  0  0  0  0  0  0  0  0  0
   -9.9207   -0.5192   -0.2218 S   0  0  0  0  0  0  0  0  0  0  0  0
   -6.8521    2.3637   -0.2366 C   0  0  0  0  0  0  0  0  0  0  0  0
   -7.3312    3.6213   -0.2171 N   0  0  0  0  0  0  0  0  0  0  0  0
   -6.1739    4.4509   -0.2216 O   0  0  0  0  0  0  0  0  0  0  0  0
   -4.9777    3.6787   -0.2449 N   0  0  0  0  0  0  0  0  0  0  0  0
   -5.3949    2.3992   -0.2540 C   0  0  0  0  0  0  0  0  0  0  0  0
  -14.3041   -2.1777   -0.1691 C   0  0  0  0  0  0  0  0  0  0  0  0
  -12.9412   -1.7678   -0.1946 C   0  0  0  0  0  0  0  0  0  0  0  0
  -12.7472   -0.3900   -0.1731 C   0  0  0  0  0  0  0  0  0  0  0  0
  -14.3484    0.4688   -0.1187 S   0  0  0  0  0  0  0  0  0  0  0  0
  -15.2224   -1.1317   -0.1262 C   0  0  0  0  0  0  0  0  0  0  0  0
  -16.6694   -1.1916   -0.0887 C   0  0  0  0  0  0  0  0  0  0  0  0
  -17.4966   -0.0625   -0.0391 C   0  0  0  0  0  0  0  0  0  0  0  0
  -18.9200   -0.1201   -0.0009 C   0  0  0  0  0  0  0  0  0  0  0  0
  -19.6547   -1.3127   -0.0093 C   0  0  0  0  0  0  0  0  0  0  0  0
  -21.1016   -1.3698    0.0293 C   0  0  0  0  0  0  0  0  0  0  0  0
  -21.9347   -2.4854    0.0201 C   0  0  0  0  0  0  0  0  0  0  0  0
  -23.3258   -2.1857    0.0662 C   0  0  0  0  0  0  0  0  0  0  0  0
  -23.6271   -0.8281    0.1137 C   0  0  0  0  0  0  0  0  0  0  0  0
  -22.0986    0.1555    0.1006 S   0  0  0  0  0  0  0  0  0  0  0  0
  -18.8407   -2.5093   -0.0604 C   0  0  0  0  0  0  0  0  0  0  0  0
  -19.2378   -3.7951   -0.0799 N   0  0  0  0  0  0  0  0  0  0  0  0
  -18.0307   -4.5476   -0.1315 O   0  0  0  0  0  0  0  0  0  0  0  0
  -16.8869   -3.6999   -0.1422 N   0  0  0  0  0  0  0  0  0  0  0  0
  -17.3850   -2.4504   -0.0989 C   0  0  0  0  0  0  0  0  0  0  0  0
  -26.6089    1.4676    0.2670 C   0  0  0  0  0  0  0  0  0  0  0  0
  -25.2161    1.1716    0.2218 C   0  0  0  0  0  0  0  0  0  0  0  0
  -24.9115   -0.1845    0.1678 C   0  0  0  0  0  0  0  0  0  0  0  0
  -26.4379   -1.1719    0.1714 S   0  0  0  0  0  0  0  0  0  0  0  0
  -27.4382    0.3500    0.2495 C   0  0  0  0  0  0  0  0  0  0  0  0
  -28.8866    0.2867    0.2846 C   0  0  0  0  0  0  0  0  0  0  0  0
  -29.6146   -0.9077    0.2614 C   0  0  0  0  0  0  0  0  0  0  0  0
  -31.0401   -0.9722    0.2956 C   0  0  0  0  0  0  0  0  0  0  0  0
  -31.8712    0.1502    0.3563 C   0  0  0  0  0  0  0  0  0  0  0  0
  -33.3236    0.0816    0.3903 C   0  0  0  0  0  0  0  0  0  0  0  0
  -34.2464    1.1180    0.4467 C   0  0  0  0  0  0  0  0  0  0  0  0
  -35.6166    0.6881    0.4650 C   0  0  0  0  0  0  0  0  0  0  0  0
  -35.7680   -0.6804    0.4231 C   0  0  0  0  0  0  0  0  0  0  0  0
  -34.1893   -1.5251    0.3580 S   0  0  0  0  0  0  0  0  0  0  0  0
  -31.1616    1.4117    0.3822 C   0  0  0  0  0  0  0  0  0  0  0  0
  -31.6662    2.6589    0.4380 N   0  0  0  0  0  0  0  0  0  0  0  0
  -30.5267    3.5117    0.4394 O   0  0  0  0  0  0  0  0  0  0  0  0
  -29.3151    2.7661    0.3816 N   0  0  0  0  0  0  0  0  0  0  0  0
  -29.7059    1.4787    0.3472 C   0  0  0  0  0  0  0  0  0  0  0  0
   33.7899   -2.9220    0.4243 H   0  0  0  0  0  0  0  0  0  0  0  0
   36.3374   -2.2854    0.5061 H   0  0  0  0  0  0  0  0  0  0  0  0
   36.7099    0.3394    0.5312 H   0  0  0  0  0  0  0  0  0  0  0  0
   31.5737    1.3335    0.3822 H   0  0  0  0  0  0  0  0  0  0  0  0
   29.1569    1.3635    0.3058 H   0  0  0  0  0  0  0  0  0  0  0  0
   26.8444   -2.8393    0.2039 H   0  0  0  0  0  0  0  0  0  0  0  0
   24.3272   -2.1620    0.1303 H   0  0  0  0  0  0  0  0  0  0  0  0
   21.7096    3.4208    0.0903 H   0  0  0  0  0  0  0  0  0  0  0  0
   24.2284    2.7485    0.1656 H   0  0  0  0  0  0  0  0  0  0  0  0
   19.4148   -0.7921   -0.0235 H   0  0  0  0  0  0  0  0  0  0  0  0
   17.0001   -0.7768   -0.1006 H   0  0  0  0  0  0  0  0  0  0  0  0
   14.7552    3.4648   -0.1271 H   0  0  0  0  0  0  0  0  0  0  0  0
   12.2282    2.8235   -0.2022 H   0  0  0  0  0  0  0  0  0  0  0  0
    9.5606   -2.7426   -0.3385 H   0  0  0  0  0  0  0  0  0  0  0  0
   12.0827   -2.0854   -0.2889 H   0  0  0  0  0  0  0  0  0  0  0  0
    7.2727    1.4758   -0.2592 H   0  0  0  0  0  0  0  0  0  0  0  0
    4.8557    1.4586   -0.2795 H   0  0  0  0  0  0  0  0  0  0  0  0
    2.6307   -2.7923   -0.3932 H   0  0  0  0  0  0  0  0  0  0  0  0
    0.0989   -2.1727   -0.3847 H   0  0  0  0  0  0  0  0  0  0  0  0
   -2.6630    3.3328   -0.2667 H   0  0  0  0  0  0  0  0  0  0  0  0
   -0.1247    2.7330   -0.2935 H   0  0  0  0  0  0  0  0  0  0  0  0
   -4.8341   -0.9467   -0.3007 H   0  0  0  0  0  0  0  0  0  0  0  0
   -7.2489   -1.0055   -0.2718 H   0  0  0  0  0  0  0  0  0  0  0  0
   -9.6263    3.1625   -0.1897 H   0  0  0  0  0  0  0  0  0  0  0  0
  -12.1320    2.4388   -0.1568 H   0  0  0  0  0  0  0  0  0  0  0  0
  -14.6153   -3.2146   -0.1814 H   0  0  0  0  0  0  0  0  0  0  0  0
  -12.1169   -2.4723   -0.2283 H   0  0  0  0  0  0  0  0  0  0  0  0
  -17.0396    0.9235   -0.0277 H   0  0  0  0  0  0  0  0  0  0  0  0
  -19.4538    0.8260    0.0368 H   0  0  0  0  0  0  0  0  0  0  0  0
  -21.5428   -3.4940   -0.0194 H   0  0  0  0  0  0  0  0  0  0  0  0
  -24.0922   -2.9536    0.0649 H   0  0  0  0  0  0  0  0  0  0  0  0
  -27.0038    2.4747    0.3119 H   0  0  0  0  0  0  0  0  0  0  0  0
  -24.4519    1.9417    0.2296 H   0  0  0  0  0  0  0  0  0  0  0  0
  -29.0771   -1.8513    0.2143 H   0  0  0  0  0  0  0  0  0  0  0  0
  -31.4923   -1.9602    0.2719 H   0  0  0  0  0  0  0  0  0  0  0  0
  -33.9465    2.1585    0.4740 H   0  0  0  0  0  0  0  0  0  0  0  0
  -36.4541    1.3757    0.5078 H   0  0  0  0  0  0  0  0  0  0  0  0
  -36.6767   -1.2654    0.4249 H   0  0  0  0  0  0  0  0  0  0  0  0
  1  2  1  0
  2  3  2  0
  3  4  1  0
  4  5  1  0
  5  6  1  0
  6  7  2  0
  7  8  1  0
  8  9  2  0
  9 10  1  0
 10 11  2  0
 11 12  1  0
 12 13  2  0
 13 14  1  0
  9 15  1  0
 15 16  2  0
 16 17  1  0
 17 18  1  0
 18 19  2  0
 20 21  1  0
 21 22  2  0
 22 23  1  0
 23 24  1  0
 24 25  1  0
 25 26  2  0
 26 27  1  0
 27 28  2  0
 28 29  1  0
 29 30  2  0
 30 31  1  0
 31 32  2  0
 32 33  1  0
 28 34  1  0
 34 35  2  0
 35 36  1  0
 36 37  1  0
 37 38  2  0
 39 40  1  0
 40 41  2  0
 41 42  1  0
 42 43  1  0
 43 44  1  0
 44 45  2  0
 45 46  1  0
 46 47  2  0
 47 48  1  0
 48 49  2  0
 49 50  1  0
 50 51  2  0
 51 52  1  0
 47 53  1  0
 53 54  2  0
 54 55  1  0
 55 56  1  0
 56 57  2  0
 58 59  1  0
 59 60  2  0
 60 61  1  0
 61 62  1  0
 62 63  1  0
 63 64  2  0
 64 65  1  0
 65 66  2  0
 66 67  1  0
 67 68  2  0
 68 69  1  0
 69 70  2  0
 70 71  1  0
 66 72  1  0
 72 73  2  0
 73 74  1  0
 74 75  1  0
 75 76  2  0
 77 78  1  0
 78 79  2  0
 79 80  1  0
 80 81  1  0
 81 82  1  0
 82 83  2  0
 83 84  1  0
 84 85  2  0
 85 86  1  0
 86 87  2  0
 87 88  1  0
 88 89  2  0
 89 90  1  0
 85 91  1  0
 91 92  2  0
 92 93  1  0
 93 94  1  0
 94 95  2  0
 96 97  1  0
 97 98  2  0
 98 99  1  0
 99100  1  0
100101  1  0
101102  2  0
102103  1  0
103104  2  0
104105  1  0
105106  2  0
106107  1  0
107108  2  0
108109  1  0
104110  1  0
110111  2  0
111112  1  0
112113  1  0
113114  2  0
  5  1  2  0
 19  6  1  0
 24 20  2  0
 38 25  1  0
 43 39  2  0
 57 44  1  0
 62 58  2  0
 76 63  1  0
 81 77  2  0
 95 82  1  0
100 96  2  0
114101  1  0
 14 10  1  0
 19 15  1  0
 33 29  1  0
 38 34  1  0
 52 48  1  0
 57 53  1  0
 71 67  1  0
 76 72  1  0
 90 86  1  0
 95 91  1  0
109105  1  0
114110  1  0
 13 22  1  0
 32 41  1  0
 51 60  1  0
 70 79  1  0
 89 98  1  0
  1115  1  0
  2116  1  0
  3117  1  0
  7118  1  0
  8119  1  0
 11120  1  0
 12121  1  0
 20122  1  0
 21123  1  0
 26124  1  0
 27125  1  0
 30126  1  0
 31127  1  0
 39128  1  0
 40129  1  0
 45130  1  0
 46131  1  0
 49132  1  0
 50133  1  0
 58134  1  0
 59135  1  0
 64136  1  0
 65137  1  0
 68138  1  0
 69139  1  0
 77140  1  0
 78141  1  0
 83142  1  0
 84143  1  0
 87144  1  0
 88145  1  0
 96146  1  0
 97147  1  0
102148  1  0
103149  1  0
106150  1  0
107151  1  0
108152  1  0
M  END
>  <_StereochemDone>  (4) 
1

>  <File>  (4) 
A-DAD_Hexamer/A-SOS6uv.gjf

>  <System_Code>  (4) 
SOS

>  <Unit_Type>  (4) 
Hexamer

>  <Family>  (4) 
benzochalcogenadiazole

>  <InChIKey>  (4) 
LVTSSDDQZPVBLB-UHFFFAOYSA-N

$$$$
A-SSS6uv
     RDKit          3D

152175  0  0  0  0  0  0  0  0999 V2000
   34.0730   -1.6848    0.4664 C   0  0  0  0  0  0  0  0  0  0  0  0
   35.4509   -1.2792    0.5060 C   0  0  0  0  0  0  0  0  0  0  0  0
   35.6276    0.0864    0.5019 C   0  0  0  0  0  0  0  0  0  0  0  0
   34.0643    0.9597    0.4480 S   0  0  0  0  0  0  0  0  0  0  0  0
   33.1661   -0.6343    0.4311 C   0  0  0  0  0  0  0  0  0  0  0  0
   31.7095   -0.6635    0.3845 C   0  0  0  0  0  0  0  0  0  0  0  0
   30.9318    0.4956    0.3518 C   0  0  0  0  0  0  0  0  0  0  0  0
   29.5089    0.4983    0.3048 C   0  0  0  0  0  0  0  0  0  0  0  0
   28.7268   -0.6594    0.2855 C   0  0  0  0  0  0  0  0  0  0  0  0
   27.2751   -0.6263    0.2387 C   0  0  0  0  0  0  0  0  0  0  0  0
   26.3630   -1.6768    0.2117 C   0  0  0  0  0  0  0  0  0  0  0  0
   24.9960   -1.2774    0.1683 C   0  0  0  0  0  0  0  0  0  0  0  0
   24.7904    0.0982    0.1603 C   0  0  0  0  0  0  0  0  0  0  0  0
   26.3847    0.9698    0.2091 S   0  0  0  0  0  0  0  0  0  0  0  0
   29.4741   -1.9093    0.3170 C   0  0  0  0  0  0  0  0  0  0  0  0
   28.9135   -3.1325    0.3052 N   0  0  0  0  0  0  0  0  0  0  0  0
   30.2135   -4.3271    0.3567 S   0  0  0  0  0  0  0  0  0  0  0  0
   31.5163   -3.1357    0.3940 N   0  0  0  0  0  0  0  0  0  0  0  0
   30.9587   -1.9105    0.3674 C   0  0  0  0  0  0  0  0  0  0  0  0
   21.9750    2.6011    0.0752 C   0  0  0  0  0  0  0  0  0  0  0  0
   23.3436    2.2069    0.1193 C   0  0  0  0  0  0  0  0  0  0  0  0
   23.5545    0.8318    0.1208 C   0  0  0  0  0  0  0  0  0  0  0  0
   21.9642   -0.0457    0.0638 S   0  0  0  0  0  0  0  0  0  0  0  0
   21.0668    1.5466    0.0402 C   0  0  0  0  0  0  0  0  0  0  0  0
   19.6165    1.5704   -0.0100 C   0  0  0  0  0  0  0  0  0  0  0  0
   18.8441    0.4045   -0.0476 C   0  0  0  0  0  0  0  0  0  0  0  0
   17.4241    0.3945   -0.0967 C   0  0  0  0  0  0  0  0  0  0  0  0
   16.6342    1.5490   -0.1132 C   0  0  0  0  0  0  0  0  0  0  0  0
   15.1843    1.5041   -0.1601 C   0  0  0  0  0  0  0  0  0  0  0  0
   14.2600    2.5451   -0.1767 C   0  0  0  0  0  0  0  0  0  0  0  0
   12.8975    2.1307   -0.2196 C   0  0  0  0  0  0  0  0  0  0  0  0
   12.7075    0.7526   -0.2385 C   0  0  0  0  0  0  0  0  0  0  0  0
   14.3115   -0.1012   -0.2022 S   0  0  0  0  0  0  0  0  0  0  0  0
   17.3736    2.8032   -0.0771 C   0  0  0  0  0  0  0  0  0  0  0  0
   16.8054    4.0229   -0.0858 N   0  0  0  0  0  0  0  0  0  0  0  0
   18.0977    5.2260   -0.0301 S   0  0  0  0  0  0  0  0  0  0  0  0
   19.4079    4.0416    0.0055 N   0  0  0  0  0  0  0  0  0  0  0  0
   18.8582    2.8138   -0.0251 C   0  0  0  0  0  0  0  0  0  0  0  0
    9.9436   -1.8029   -0.3428 C   0  0  0  0  0  0  0  0  0  0  0  0
   11.3028   -1.3795   -0.3140 C   0  0  0  0  0  0  0  0  0  0  0  0
   11.4838   -0.0004   -0.2777 C   0  0  0  0  0  0  0  0  0  0  0  0
    9.8736    0.8427   -0.2792 S   0  0  0  0  0  0  0  0  0  0  0  0
    9.0114   -0.7688   -0.3295 C   0  0  0  0  0  0  0  0  0  0  0  0
    7.5615   -0.8293   -0.3457 C   0  0  0  0  0  0  0  0  0  0  0  0
    6.7563    0.3146   -0.3221 C   0  0  0  0  0  0  0  0  0  0  0  0
    5.3354    0.2856   -0.3310 C   0  0  0  0  0  0  0  0  0  0  0  0
    4.5779   -0.8902   -0.3646 C   0  0  0  0  0  0  0  0  0  0  0  0
    3.1266   -0.8889   -0.3662 C   0  0  0  0  0  0  0  0  0  0  0  0
    2.2368   -1.9594   -0.3929 C   0  0  0  0  0  0  0  0  0  0  0  0
    0.8614   -1.5908   -0.3801 C   0  0  0  0  0  0  0  0  0  0  0  0
    0.6250   -0.2202   -0.3432 C   0  0  0  0  0  0  0  0  0  0  0  0
    2.2001    0.6866   -0.3232 S   0  0  0  0  0  0  0  0  0  0  0  0
    5.3529   -2.1231   -0.3944 C   0  0  0  0  0  0  0  0  0  0  0  0
    4.8190   -3.3576   -0.4313 N   0  0  0  0  0  0  0  0  0  0  0  0
    6.1446   -4.5244   -0.4555 S   0  0  0  0  0  0  0  0  0  0  0  0
    7.4216   -3.3049   -0.4143 N   0  0  0  0  0  0  0  0  0  0  0  0
    6.8378   -2.0930   -0.3848 C   0  0  0  0  0  0  0  0  0  0  0  0
   -2.2454    2.2182   -0.2708 C   0  0  0  0  0  0  0  0  0  0  0  0
   -0.8683    1.8547   -0.2954 C   0  0  0  0  0  0  0  0  0  0  0  0
   -0.6272    0.4847   -0.3180 C   0  0  0  0  0  0  0  0  0  0  0  0
   -2.1989   -0.4280   -0.3089 S   0  0  0  0  0  0  0  0  0  0  0  0
   -3.1309    1.1439   -0.2730 C   0  0  0  0  0  0  0  0  0  0  0  0
   -4.5819    1.1365   -0.2488 C   0  0  0  0  0  0  0  0  0  0  0  0
   -5.3307   -0.0453   -0.2510 C   0  0  0  0  0  0  0  0  0  0  0  0
   -6.7509   -0.0851   -0.2245 C   0  0  0  0  0  0  0  0  0  0  0  0
   -7.5643    1.0527   -0.1933 C   0  0  0  0  0  0  0  0  0  0  0  0
   -9.0134    0.9786   -0.1650 C   0  0  0  0  0  0  0  0  0  0  0  0
   -9.9566    2.0022   -0.1368 C   0  0  0  0  0  0  0  0  0  0  0  0
  -11.3114    1.5628   -0.1140 C   0  0  0  0  0  0  0  0  0  0  0  0
  -11.4768    0.1813   -0.1234 C   0  0  0  0  0  0  0  0  0  0  0  0
   -9.8574   -0.6429   -0.1630 S   0  0  0  0  0  0  0  0  0  0  0  0
   -6.8503    2.3221   -0.1911 C   0  0  0  0  0  0  0  0  0  0  0  0
   -7.4432    3.5298   -0.1649 N   0  0  0  0  0  0  0  0  0  0  0  0
   -6.1749    4.7594   -0.1740 S   0  0  0  0  0  0  0  0  0  0  0  0
   -4.8408    3.6026   -0.2138 N   0  0  0  0  0  0  0  0  0  0  0  0
   -5.3657    2.3637   -0.2189 C   0  0  0  0  0  0  0  0  0  0  0  0
  -14.2075   -2.4129   -0.0869 C   0  0  0  0  0  0  0  0  0  0  0  0
  -12.8532   -1.9724   -0.1123 C   0  0  0  0  0  0  0  0  0  0  0  0
  -12.6890   -0.5908   -0.1049 C   0  0  0  0  0  0  0  0  0  0  0  0
  -14.3090    0.2322   -0.0642 S   0  0  0  0  0  0  0  0  0  0  0  0
  -15.1516   -1.3901   -0.0591 C   0  0  0  0  0  0  0  0  0  0  0  0
  -16.6006   -1.4661   -0.0273 C   0  0  0  0  0  0  0  0  0  0  0  0
  -17.4162   -0.3297   -0.0040 C   0  0  0  0  0  0  0  0  0  0  0  0
  -18.8363   -0.3721    0.0291 C   0  0  0  0  0  0  0  0  0  0  0  0
  -19.5827   -1.5554    0.0425 C   0  0  0  0  0  0  0  0  0  0  0  0
  -21.0337   -1.5661    0.0756 C   0  0  0  0  0  0  0  0  0  0  0  0
  -21.9159   -2.6428    0.0922 C   0  0  0  0  0  0  0  0  0  0  0  0
  -23.2941   -2.2831    0.1234 C   0  0  0  0  0  0  0  0  0  0  0  0
  -23.5394   -0.9139    0.1324 C   0  0  0  0  0  0  0  0  0  0  0  0
  -21.9704    0.0035    0.1002 S   0  0  0  0  0  0  0  0  0  0  0  0
  -18.7964   -2.7813    0.0198 C   0  0  0  0  0  0  0  0  0  0  0  0
  -19.3187   -4.0214    0.0280 N   0  0  0  0  0  0  0  0  0  0  0  0
  -17.9824   -5.1756   -0.0085 S   0  0  0  0  0  0  0  0  0  0  0  0
  -16.7166   -3.9436   -0.0349 N   0  0  0  0  0  0  0  0  0  0  0  0
  -17.3121   -2.7370   -0.0159 C   0  0  0  0  0  0  0  0  0  0  0  0
  -26.4168    1.5166    0.2008 C   0  0  0  0  0  0  0  0  0  0  0  0
  -25.0385    1.1559    0.1715 C   0  0  0  0  0  0  0  0  0  0  0  0
  -24.7943   -0.2133    0.1614 C   0  0  0  0  0  0  0  0  0  0  0  0
  -26.3641   -1.1293    0.1899 S   0  0  0  0  0  0  0  0  0  0  0  0
  -27.2992    0.4408    0.2147 C   0  0  0  0  0  0  0  0  0  0  0  0
  -28.7518    0.4314    0.2447 C   0  0  0  0  0  0  0  0  0  0  0  0
  -29.4990   -0.7493    0.2589 C   0  0  0  0  0  0  0  0  0  0  0  0
  -30.9217   -0.7892    0.2881 C   0  0  0  0  0  0  0  0  0  0  0  0
  -31.7343    0.3460    0.3062 C   0  0  0  0  0  0  0  0  0  0  0  0
  -33.1898    0.2725    0.3351 C   0  0  0  0  0  0  0  0  0  0  0  0
  -34.1287    1.2948    0.3543 C   0  0  0  0  0  0  0  0  0  0  0  0
  -35.4939    0.8473    0.3800 C   0  0  0  0  0  0  0  0  0  0  0  0
  -35.6287   -0.5232    0.3811 C   0  0  0  0  0  0  0  0  0  0  0  0
  -34.0388   -1.3484    0.3495 S   0  0  0  0  0  0  0  0  0  0  0  0
  -31.0213    1.6152    0.2935 C   0  0  0  0  0  0  0  0  0  0  0  0
  -31.6157    2.8230    0.3081 N   0  0  0  0  0  0  0  0  0  0  0  0
  -30.3486    4.0528    0.2832 S   0  0  0  0  0  0  0  0  0  0  0  0
  -29.0128    2.8977    0.2536 N   0  0  0  0  0  0  0  0  0  0  0  0
  -29.5366    1.6583    0.2625 C   0  0  0  0  0  0  0  0  0  0  0  0
   33.7456   -2.7159    0.4629 H   0  0  0  0  0  0  0  0  0  0  0  0
   36.2756   -1.9828    0.5361 H   0  0  0  0  0  0  0  0  0  0  0  0
   36.5465    0.6548    0.5263 H   0  0  0  0  0  0  0  0  0  0  0  0
   31.4281    1.4626    0.3620 H   0  0  0  0  0  0  0  0  0  0  0  0
   29.0166    1.4672    0.2828 H   0  0  0  0  0  0  0  0  0  0  0  0
   26.6915   -2.7073    0.2241 H   0  0  0  0  0  0  0  0  0  0  0  0
   24.1771   -1.9888    0.1439 H   0  0  0  0  0  0  0  0  0  0  0  0
   21.6423    3.6304    0.0686 H   0  0  0  0  0  0  0  0  0  0  0  0
   24.1597    2.9213    0.1499 H   0  0  0  0  0  0  0  0  0  0  0  0
   19.3457   -0.5597   -0.0393 H   0  0  0  0  0  0  0  0  0  0  0  0
   16.9369   -0.5768   -0.1217 H   0  0  0  0  0  0  0  0  0  0  0  0
   14.5772    3.5791   -0.1573 H   0  0  0  0  0  0  0  0  0  0  0  0
   12.0704    2.8329   -0.2366 H   0  0  0  0  0  0  0  0  0  0  0  0
    9.6335   -2.8387   -0.3726 H   0  0  0  0  0  0  0  0  0  0  0  0
   12.1348   -2.0758   -0.3201 H   0  0  0  0  0  0  0  0  0  0  0  0
    7.2315    1.2917   -0.2928 H   0  0  0  0  0  0  0  0  0  0  0  0
    4.8207    1.2427   -0.3079 H   0  0  0  0  0  0  0  0  0  0  0  0
    2.5884   -2.9819   -0.4206 H   0  0  0  0  0  0  0  0  0  0  0  0
    0.0580   -2.3198   -0.3979 H   0  0  0  0  0  0  0  0  0  0  0  0
   -2.6008    3.2397   -0.2513 H   0  0  0  0  0  0  0  0  0  0  0  0
   -0.0676    2.5870   -0.2968 H   0  0  0  0  0  0  0  0  0  0  0  0
   -4.8093   -0.9987   -0.2735 H   0  0  0  0  0  0  0  0  0  0  0  0
   -7.2186   -1.0662   -0.2290 H   0  0  0  0  0  0  0  0  0  0  0  0
   -9.6581    3.0419   -0.1328 H   0  0  0  0  0  0  0  0  0  0  0  0
  -12.1511    2.2497   -0.0909 H   0  0  0  0  0  0  0  0  0  0  0  0
  -14.5053   -3.4528   -0.0881 H   0  0  0  0  0  0  0  0  0  0  0  0
  -12.0130   -2.6585   -0.1353 H   0  0  0  0  0  0  0  0  0  0  0  0
  -16.9504    0.6523   -0.0113 H   0  0  0  0  0  0  0  0  0  0  0  0
  -19.3596    0.5804    0.0446 H   0  0  0  0  0  0  0  0  0  0  0  0
  -21.5580   -3.6635    0.0812 H   0  0  0  0  0  0  0  0  0  0  0  0
  -24.0922   -3.0180    0.1391 H   0  0  0  0  0  0  0  0  0  0  0  0
  -26.7744    2.5374    0.2119 H   0  0  0  0  0  0  0  0  0  0  0  0
  -24.2397    1.8903    0.1581 H   0  0  0  0  0  0  0  0  0  0  0  0
  -28.9778   -1.7030    0.2474 H   0  0  0  0  0  0  0  0  0  0  0  0
  -31.3890   -1.7705    0.2965 H   0  0  0  0  0  0  0  0  0  0  0  0
  -33.8331    2.3355    0.3496 H   0  0  0  0  0  0  0  0  0  0  0  0
  -36.3400    1.5254    0.3970 H   0  0  0  0  0  0  0  0  0  0  0  0
  -36.5300   -1.1193    0.3987 H   0  0  0  0  0  0  0  0  0  0  0  0
  1  2  1  0
  2  3  2  0
  3  4  1  0
  4  5  1  0
  5  6  1  0
  6  7  2  0
  7  8  1  0
  8  9  2  0
  9 10  1  0
 10 11  2  0
 11 12  1  0
 12 13  2  0
 13 14  1  0
  9 15  1  0
 15 16  2  0
 16 17  1  0
 17 18  1  0
 18 19  2  0
 20 21  1  0
 21 22  2  0
 22 23  1  0
 23 24  1  0
 24 25  1  0
 25 26  2  0
 26 27  1  0
 27 28  2  0
 28 29  1  0
 29 30  2  0
 30 31  1  0
 31 32  2  0
 32 33  1  0
 28 34  1  0
 34 35  2  0
 35 36  1  0
 36 37  1  0
 37 38  2  0
 39 40  1  0
 40 41  2  0
 41 42  1  0
 42 43  1  0
 43 44  1  0
 44 45  2  0
 45 46  1  0
 46 47  2  0
 47 48  1  0
 48 49  2  0
 49 50  1  0
 50 51  2  0
 51 52  1  0
 47 53  1  0
 53 54  2  0
 54 55  1  0
 55 56  1  0
 56 57  2  0
 58 59  1  0
 59 60  2  0
 60 61  1  0
 61 62  1  0
 62 63  1  0
 63 64  2  0
 64 65  1  0
 65 66  2  0
 66 67  1  0
 67 68  2  0
 68 69  1  0
 69 70  2  0
 70 71  1  0
 66 72  1  0
 72 73  2  0
 73 74  1  0
 74 75  1  0
 75 76  2  0
 77 78  1  0
 78 79  2  0
 79 80  1  0
 80 81  1  0
 81 82  1  0
 82 83  2  0
 83 84  1  0
 84 85  2  0
 85 86  1  0
 86 87  2  0
 87 88  1  0
 88 89  2  0
 89 90  1  0
 85 91  1  0
 91 92  2  0
 92 93  1  0
 93 94  1  0
 94 95  2  0
 96 97  1  0
 97 98  2  0
 98 99  1  0
 99100  1  0
100101  1  0
101102  2  0
102103  1  0
103104  2  0
104105  1  0
105106  2  0
106107  1  0
107108  2  0
108109  1  0
104110  1  0
110111  2  0
111112  1  0
112113  1  0
113114  2  0
  5  1  2  0
 19  6  1  0
 24 20  2  0
 38 25  1  0
 43 39  2  0
 57 44  1  0
 62 58  2  0
 76 63  1  0
 81 77  2  0
 95 82  1  0
100 96  2  0
114101  1  0
 14 10  1  0
 19 15  1  0
 33 29  1  0
 38 34  1  0
 52 48  1  0
 57 53  1  0
 71 67  1  0
 76 72  1  0
 90 86  1  0
 95 91  1  0
109105  1  0
114110  1  0
 13 22  1  0
 32 41  1  0
 51 60  1  0
 70 79  1  0
 89 98  1  0
  1115  1  0
  2116  1  0
  3117  1  0
  7118  1  0
  8119  1  0
 11120  1  0
 12121  1  0
 20122  1  0
 21123  1  0
 26124  1  0
 27125  1  0
 30126  1  0
 31127  1  0
 39128  1  0
 40129  1  0
 45130  1  0
 46131  1  0
 49132  1  0
 50133  1  0
 58134  1  0
 59135  1  0
 64136  1  0
 65137  1  0
 68138  1  0
 69139  1  0
 77140  1  0
 78141  1  0
 83142  1  0
 84143  1  0
 87144  1  0
 88145  1  0
 96146  1  0
 97147  1  0
102148  1  0
103149  1  0
106150  1  0
107151  1  0
108152  1  0
M  END
>  <_StereochemDone>  (5) 
1

>  <File>  (5) 
A-DAD_Hexamer/A-SSS6uv.gjf

>  <System_Code>  (5) 
SSS

>  <Unit_Type>  (5) 
Hexamer

>  <Family>  (5) 
benzochalcogenadiazole

>  <InChIKey>  (5) 
HQBAADXQFKDKNF-UHFFFAOYSA-N

$$$$
A-SSeS6uv
     RDKit          3D

152175  0  0  0  0  0  0  0  0999 V2000
   34.0866   -1.3723    0.0661 C   0  0  0  0  0  0  0  0  0  0  0  0
   35.4529   -0.9267    0.0745 C   0  0  0  0  0  0  0  0  0  0  0  0
   35.5901    0.4432    0.0656 C   0  0  0  0  0  0  0  0  0  0  0  0
   34.0011    1.2704    0.0460 S   0  0  0  0  0  0  0  0  0  0  0  0
   33.1478   -0.3501    0.0505 C   0  0  0  0  0  0  0  0  0  0  0  0
   31.6905   -0.4167    0.0386 C   0  0  0  0  0  0  0  0  0  0  0  0
   30.8917    0.7269    0.0252 C   0  0  0  0  0  0  0  0  0  0  0  0
   29.4689    0.7035    0.0143 C   0  0  0  0  0  0  0  0  0  0  0  0
   28.7087   -0.4677    0.0157 C   0  0  0  0  0  0  0  0  0  0  0  0
   27.2549   -0.4509    0.0075 C   0  0  0  0  0  0  0  0  0  0  0  0
   26.3487   -1.5067    0.0010 C   0  0  0  0  0  0  0  0  0  0  0  0
   24.9779   -1.1173   -0.0044 C   0  0  0  0  0  0  0  0  0  0  0  0
   24.7617    0.2564   -0.0020 C   0  0  0  0  0  0  0  0  0  0  0  0
   26.3503    1.1394    0.0073 S   0  0  0  0  0  0  0  0  0  0  0  0
   29.4741   -1.7114    0.0275 C   0  0  0  0  0  0  0  0  0  0  0  0
   28.9075   -2.9301    0.0288 N   0  0  0  0  0  0  0  0  0  0  0  0
   30.2648   -4.2165    0.0464 Se  0  0  0  0  0  2  0  0  0  0  0  0
   31.5772   -2.8844    0.0507 N   0  0  0  0  0  0  0  0  0  0  0  0
   30.9685   -1.6853    0.0396 C   0  0  0  0  0  0  0  0  0  0  0  0
   21.9298    2.7415   -0.0007 C   0  0  0  0  0  0  0  0  0  0  0  0
   23.3012    2.3551    0.0004 C   0  0  0  0  0  0  0  0  0  0  0  0
   23.5203    0.9816   -0.0039 C   0  0  0  0  0  0  0  0  0  0  0  0
   21.9338    0.0952   -0.0104 S   0  0  0  0  0  0  0  0  0  0  0  0
   21.0253    1.6834   -0.0059 C   0  0  0  0  0  0  0  0  0  0  0  0
   19.5729    1.6952   -0.0071 C   0  0  0  0  0  0  0  0  0  0  0  0
   18.8173    0.5190   -0.0128 C   0  0  0  0  0  0  0  0  0  0  0  0
   17.3972    0.4883   -0.0136 C   0  0  0  0  0  0  0  0  0  0  0  0
   16.5911    1.6304   -0.0086 C   0  0  0  0  0  0  0  0  0  0  0  0
   15.1406    1.5552   -0.0094 C   0  0  0  0  0  0  0  0  0  0  0  0
   14.1913    2.5734   -0.0029 C   0  0  0  0  0  0  0  0  0  0  0  0
   12.8380    2.1282   -0.0059 C   0  0  0  0  0  0  0  0  0  0  0  0
   12.6782    0.7463   -0.0150 C   0  0  0  0  0  0  0  0  0  0  0  0
   14.3017   -0.0707   -0.0203 S   0  0  0  0  0  0  0  0  0  0  0  0
   17.3074    2.9031   -0.0025 C   0  0  0  0  0  0  0  0  0  0  0  0
   16.6937    4.0988    0.0028 N   0  0  0  0  0  0  0  0  0  0  0  0
   18.0003    5.4375    0.0097 Se  0  0  0  0  0  2  0  0  0  0  0  0
   19.3630    4.1565    0.0037 N   0  0  0  0  0  0  0  0  0  0  0  0
   18.8017    2.9354   -0.0020 C   0  0  0  0  0  0  0  0  0  0  0  0
    9.9593   -1.8609   -0.0330 C   0  0  0  0  0  0  0  0  0  0  0  0
   11.3117   -1.4135   -0.0291 C   0  0  0  0  0  0  0  0  0  0  0  0
   11.4693   -0.0313   -0.0206 C   0  0  0  0  0  0  0  0  0  0  0  0
    9.8446    0.7832   -0.0173 S   0  0  0  0  0  0  0  0  0  0  0  0
    9.0082   -0.8444   -0.0278 C   0  0  0  0  0  0  0  0  0  0  0  0
    7.5580   -0.9233   -0.0297 C   0  0  0  0  0  0  0  0  0  0  0  0
    6.7485    0.2165   -0.0235 C   0  0  0  0  0  0  0  0  0  0  0  0
    5.3285    0.1814   -0.0251 C   0  0  0  0  0  0  0  0  0  0  0  0
    4.5765   -0.9972   -0.0331 C   0  0  0  0  0  0  0  0  0  0  0  0
    3.1241   -0.9905   -0.0341 C   0  0  0  0  0  0  0  0  0  0  0  0
    2.2242   -2.0526   -0.0403 C   0  0  0  0  0  0  0  0  0  0  0  0
    0.8513   -1.6724   -0.0392 C   0  0  0  0  0  0  0  0  0  0  0  0
    0.6259   -0.2997   -0.0323 C   0  0  0  0  0  0  0  0  0  0  0  0
    2.2086    0.5938   -0.0260 S   0  0  0  0  0  0  0  0  0  0  0  0
    5.3514   -2.2350   -0.0401 C   0  0  0  0  0  0  0  0  0  0  0  0
    4.7939   -3.4579   -0.0485 N   0  0  0  0  0  0  0  0  0  0  0  0
    6.1604   -4.7346   -0.0551 Se  0  0  0  0  0  2  0  0  0  0  0  0
    7.4627   -3.3921   -0.0452 N   0  0  0  0  0  0  0  0  0  0  0  0
    6.8455   -2.1981   -0.0383 C   0  0  0  0  0  0  0  0  0  0  0  0
   -2.2178    2.1708   -0.0249 C   0  0  0  0  0  0  0  0  0  0  0  0
   -0.8449    1.7908   -0.0271 C   0  0  0  0  0  0  0  0  0  0  0  0
   -0.6193    0.4181   -0.0295 C   0  0  0  0  0  0  0  0  0  0  0  0
   -2.2018   -0.4756   -0.0285 S   0  0  0  0  0  0  0  0  0  0  0  0
   -3.1176    1.1086   -0.0253 C   0  0  0  0  0  0  0  0  0  0  0  0
   -4.5700    1.1147   -0.0233 C   0  0  0  0  0  0  0  0  0  0  0  0
   -5.3212   -0.0643   -0.0217 C   0  0  0  0  0  0  0  0  0  0  0  0
   -6.7411   -0.1005   -0.0199 C   0  0  0  0  0  0  0  0  0  0  0  0
   -7.5515    1.0387   -0.0197 C   0  0  0  0  0  0  0  0  0  0  0  0
   -9.0017    0.9581   -0.0180 C   0  0  0  0  0  0  0  0  0  0  0  0
   -9.9550    1.9725   -0.0189 C   0  0  0  0  0  0  0  0  0  0  0  0
  -11.3067    1.5221   -0.0169 C   0  0  0  0  0  0  0  0  0  0  0  0
  -11.4611    0.1395   -0.0143 C   0  0  0  0  0  0  0  0  0  0  0  0
   -9.8343   -0.6711   -0.0144 S   0  0  0  0  0  0  0  0  0  0  0  0
   -6.8400    2.3141   -0.0212 C   0  0  0  0  0  0  0  0  0  0  0  0
   -7.4583    3.5075   -0.0211 N   0  0  0  0  0  0  0  0  0  0  0  0
   -6.1568    4.8511   -0.0229 Se  0  0  0  0  0  2  0  0  0  0  0  0
   -4.7893    3.5754   -0.0242 N   0  0  0  0  0  0  0  0  0  0  0  0
   -5.3458    2.3520   -0.0230 C   0  0  0  0  0  0  0  0  0  0  0  0
  -14.1651   -2.4825   -0.0067 C   0  0  0  0  0  0  0  0  0  0  0  0
  -12.8156   -2.0270   -0.0088 C   0  0  0  0  0  0  0  0  0  0  0  0
  -12.6662   -0.6439   -0.0118 C   0  0  0  0  0  0  0  0  0  0  0  0
  -14.2960    0.1608   -0.0122 S   0  0  0  0  0  0  0  0  0  0  0  0
  -15.1224   -1.4719   -0.0080 C   0  0  0  0  0  0  0  0  0  0  0  0
  -16.5722   -1.5614   -0.0062 C   0  0  0  0  0  0  0  0  0  0  0  0
  -17.3910   -0.4283   -0.0083 C   0  0  0  0  0  0  0  0  0  0  0  0
  -18.8110   -0.4750   -0.0062 C   0  0  0  0  0  0  0  0  0  0  0  0
  -19.5533   -1.6597   -0.0017 C   0  0  0  0  0  0  0  0  0  0  0  0
  -21.0058   -1.6663    0.0011 C   0  0  0  0  0  0  0  0  0  0  0  0
  -21.8948   -2.7374    0.0059 C   0  0  0  0  0  0  0  0  0  0  0  0
  -23.2715   -2.3715    0.0083 C   0  0  0  0  0  0  0  0  0  0  0  0
  -23.5112   -1.0014    0.0054 C   0  0  0  0  0  0  0  0  0  0  0  0
  -21.9379   -0.0913   -0.0008 S   0  0  0  0  0  0  0  0  0  0  0  0
  -18.7679   -2.8911    0.0003 C   0  0  0  0  0  0  0  0  0  0  0  0
  -19.3152   -4.1186    0.0042 N   0  0  0  0  0  0  0  0  0  0  0  0
  -17.9386   -5.3843    0.0047 Se  0  0  0  0  0  2  0  0  0  0  0  0
  -16.6473   -4.0310   -0.0001 N   0  0  0  0  0  0  0  0  0  0  0  0
  -17.2742   -2.8421   -0.0020 C   0  0  0  0  0  0  0  0  0  0  0  0
  -26.3893    1.4306    0.0062 C   0  0  0  0  0  0  0  0  0  0  0  0
  -25.0102    1.0701    0.0013 C   0  0  0  0  0  0  0  0  0  0  0  0
  -24.7654   -0.2988    0.0072 C   0  0  0  0  0  0  0  0  0  0  0  0
  -26.3353   -1.2147    0.0197 S   0  0  0  0  0  0  0  0  0  0  0  0
  -27.2731    0.3560    0.0159 C   0  0  0  0  0  0  0  0  0  0  0  0
  -28.7269    0.3405    0.0236 C   0  0  0  0  0  0  0  0  0  0  0  0
  -29.4603   -0.8476    0.0344 C   0  0  0  0  0  0  0  0  0  0  0  0
  -30.8821   -0.9033    0.0428 C   0  0  0  0  0  0  0  0  0  0  0  0
  -31.7069    0.2218    0.0413 C   0  0  0  0  0  0  0  0  0  0  0  0
  -33.1622    0.1208    0.0500 C   0  0  0  0  0  0  0  0  0  0  0  0
  -34.1257    1.1199    0.0495 C   0  0  0  0  0  0  0  0  0  0  0  0
  -35.4808    0.6409    0.0593 C   0  0  0  0  0  0  0  0  0  0  0  0
  -35.5840   -0.7322    0.0676 C   0  0  0  0  0  0  0  0  0  0  0  0
  -33.9757   -1.5201    0.0639 S   0  0  0  0  0  0  0  0  0  0  0  0
  -31.0142    1.5064    0.0301 C   0  0  0  0  0  0  0  0  0  0  0  0
  -31.6500    2.6914    0.0272 N   0  0  0  0  0  0  0  0  0  0  0  0
  -30.3677    4.0529    0.0133 Se  0  0  0  0  0  2  0  0  0  0  0  0
  -28.9816    2.7974    0.0107 N   0  0  0  0  0  0  0  0  0  0  0  0
  -29.5206    1.5664    0.0210 C   0  0  0  0  0  0  0  0  0  0  0  0
   33.7876   -2.4117    0.0711 H   0  0  0  0  0  0  0  0  0  0  0  0
   36.2981   -1.6062    0.0868 H   0  0  0  0  0  0  0  0  0  0  0  0
   36.4924    1.0381    0.0690 H   0  0  0  0  0  0  0  0  0  0  0  0
   31.3698    1.7030    0.0231 H   0  0  0  0  0  0  0  0  0  0  0  0
   28.9590    1.6633    0.0045 H   0  0  0  0  0  0  0  0  0  0  0  0
   26.6867   -2.5338    0.0012 H   0  0  0  0  0  0  0  0  0  0  0  0
   24.1638   -1.8347   -0.0096 H   0  0  0  0  0  0  0  0  0  0  0  0
   21.5897    3.7680    0.0025 H   0  0  0  0  0  0  0  0  0  0  0  0
   24.1139    3.0741    0.0046 H   0  0  0  0  0  0  0  0  0  0  0  0
   19.3325   -0.4380   -0.0168 H   0  0  0  0  0  0  0  0  0  0  0  0
   16.9239   -0.4901   -0.0183 H   0  0  0  0  0  0  0  0  0  0  0  0
   14.4871    3.6136    0.0040 H   0  0  0  0  0  0  0  0  0  0  0  0
   11.9950    2.8115   -0.0014 H   0  0  0  0  0  0  0  0  0  0  0  0
    9.6654   -2.9015   -0.0396 H   0  0  0  0  0  0  0  0  0  0  0  0
   12.1557   -2.0953   -0.0324 H   0  0  0  0  0  0  0  0  0  0  0  0
    7.2189    1.1963   -0.0170 H   0  0  0  0  0  0  0  0  0  0  0  0
    4.8103    1.1367   -0.0196 H   0  0  0  0  0  0  0  0  0  0  0  0
    2.5689   -3.0776   -0.0456 H   0  0  0  0  0  0  0  0  0  0  0  0
    0.0419   -2.3950   -0.0439 H   0  0  0  0  0  0  0  0  0  0  0  0
   -2.5626    3.1958   -0.0232 H   0  0  0  0  0  0  0  0  0  0  0  0
   -0.0355    2.5135   -0.0273 H   0  0  0  0  0  0  0  0  0  0  0  0
   -4.8023   -1.0194   -0.0216 H   0  0  0  0  0  0  0  0  0  0  0  0
   -7.2107   -1.0806   -0.0189 H   0  0  0  0  0  0  0  0  0  0  0  0
   -9.6634    3.0139   -0.0209 H   0  0  0  0  0  0  0  0  0  0  0  0
  -12.1522    2.2021   -0.0173 H   0  0  0  0  0  0  0  0  0  0  0  0
  -14.4528   -3.5249   -0.0044 H   0  0  0  0  0  0  0  0  0  0  0  0
  -11.9675   -2.7039   -0.0082 H   0  0  0  0  0  0  0  0  0  0  0  0
  -16.9285    0.5553   -0.0117 H   0  0  0  0  0  0  0  0  0  0  0  0
  -19.3371    0.4761   -0.0081 H   0  0  0  0  0  0  0  0  0  0  0  0
  -21.5398   -3.7588    0.0075 H   0  0  0  0  0  0  0  0  0  0  0  0
  -24.0733   -3.1026    0.0120 H   0  0  0  0  0  0  0  0  0  0  0  0
  -26.7487    2.4505    0.0028 H   0  0  0  0  0  0  0  0  0  0  0  0
  -24.2114    1.8045   -0.0064 H   0  0  0  0  0  0  0  0  0  0  0  0
  -28.9290   -1.7958    0.0369 H   0  0  0  0  0  0  0  0  0  0  0  0
  -31.3378   -1.8899    0.0509 H   0  0  0  0  0  0  0  0  0  0  0  0
  -33.8523    2.1663    0.0422 H   0  0  0  0  0  0  0  0  0  0  0  0
  -36.3425    1.2995    0.0602 H   0  0  0  0  0  0  0  0  0  0  0  0
  -36.4718   -1.3484    0.0764 H   0  0  0  0  0  0  0  0  0  0  0  0
  1  2  1  0
  2  3  2  0
  3  4  1  0
  4  5  1  0
  5  6  1  0
  6  7  2  0
  7  8  1  0
  8  9  2  0
  9 10  1  0
 10 11  2  0
 11 12  1  0
 12 13  2  0
 13 14  1  0
  9 15  1  0
 15 16  2  0
 16 17  1  0
 17 18  1  0
 18 19  2  0
 20 21  1  0
 21 22  2  0
 22 23  1  0
 23 24  1  0
 24 25  1  0
 25 26  2  0
 26 27  1  0
 27 28  2  0
 28 29  1  0
 29 30  2  0
 30 31  1  0
 31 32  2  0
 32 33  1  0
 28 34  1  0
 34 35  2  0
 35 36  1  0
 36 37  1  0
 37 38  2  0
 39 40  1  0
 40 41  2  0
 41 42  1  0
 42 43  1  0
 43 44  1  0
 44 45  2  0
 45 46  1  0
 46 47  2  0
 47 48  1  0
 48 49  2  0
 49 50  1  0
 50 51  2  0
 51 52  1  0
 47 53  1  0
 53 54  2  0
 54 55  1  0
 55 56  1  0
 56 57  2  0
 58 59  1  0
 59 60  2  0
 60 61  1  0
 61 62  1  0
 62 63  1  0
 63 64  2  0
 64 65  1  0
 65 66  2  0
 66 67  1  0
 67 68  2  0
 68 69  1  0
 69 70  2  0
 70 71  1  0
 66 72  1  0
 72 73  2  0
 73 74  1  0
 74 75  1  0
 75 76  2  0
 77 78  1  0
 78 79  2  0
 79 80  1  0
 80 81  1  0
 81 82  1  0
 82 83  2  0
 83 84  1  0
 84 85  2  0
 85 86  1  0
 86 87  2  0
 87 88  1  0
 88 89  2  0
 89 90  1  0
 85 91  1  0
 91 92  2  0
 92 93  1  0
 93 94  1  0
 94 95  2  0
 96 97  1  0
 97 98  2  0
 98 99  1  0
 99100  1  0
100101  1  0
101102  2  0
102103  1  0
103104  2  0
104105  1  0
105106  2  0
106107  1  0
107108  2  0
108109  1  0
104110  1  0
110111  2  0
111112  1  0
112113  1  0
113114  2  0
  5  1  2  0
 19  6  1  0
 24 20  2  0
 38 25  1  0
 43 39  2  0
 57 44  1  0
 62 58  2  0
 76 63  1  0
 81 77  2  0
 95 82  1  0
100 96  2  0
114101  1  0
 14 10  1  0
 19 15  1  0
 33 29  1  0
 38 34  1  0
 52 48  1  0
 57 53  1  0
 71 67  1  0
 76 72  1  0
 90 86  1  0
 95 91  1  0
109105  1  0
114110  1  0
 13 22  1  0
 32 41  1  0
 51 60  1  0
 70 79  1  0
 89 98  1  0
  1115  1  0
  2116  1  0
  3117  1  0
  7118  1  0
  8119  1  0
 11120  1  0
 12121  1  0
 20122  1  0
 21123  1  0
 26124  1  0
 27125  1  0
 30126  1  0
 31127  1  0
 39128  1  0
 40129  1  0
 45130  1  0
 46131  1  0
 49132  1  0
 50133  1  0
 58134  1  0
 59135  1  0
 64136  1  0
 65137  1  0
 68138  1  0
 69139  1  0
 77140  1  0
 78141  1  0
 83142  1  0
 84143  1  0
 87144  1  0
 88145  1  0
 96146  1  0
 97147  1  0
102148  1  0
103149  1  0
106150  1  0
107151  1  0
108152  1  0
M  END
>  <_StereochemDone>  (6) 
1

>  <File>  (6) 
A-DAD_Hexamer/A-SSeS6uv.gjf

>  <System_Code>  (6) 
SSeS

>  <Unit_Type>  (6) 
Hexamer

>  <Family>  (6) 
benzochalcogenadiazole

>  <InChIKey>  (6) 
WECRNEHOSRUVAA-UHFFFAOYSA-N

$$$$
A-STeS6uv
     RDKit          3D

152175  0  0  0  0  0  0  0  0999 V2000
  -34.0493   -1.2260   -0.2346 C   0  0  0  0  0  0  0  0  0  0  0  0
  -35.4084   -0.7585   -0.2528 C   0  0  0  0  0  0  0  0  0  0  0  0
  -35.5240    0.6132   -0.2547 C   0  0  0  0  0  0  0  0  0  0  0  0
  -33.9220    1.4146   -0.2340 S   0  0  0  0  0  0  0  0  0  0  0  0
  -33.0927   -0.2206   -0.2222 C   0  0  0  0  0  0  0  0  0  0  0  0
  -31.6352   -0.3059   -0.2021 C   0  0  0  0  0  0  0  0  0  0  0  0
  -30.8320    0.8329   -0.1918 C   0  0  0  0  0  0  0  0  0  0  0  0
  -29.4099    0.8038   -0.1713 C   0  0  0  0  0  0  0  0  0  0  0  0
  -28.6549   -0.3688   -0.1587 C   0  0  0  0  0  0  0  0  0  0  0  0
  -27.2004   -0.3456   -0.1379 C   0  0  0  0  0  0  0  0  0  0  0  0
  -26.2844   -1.3927   -0.1211 C   0  0  0  0  0  0  0  0  0  0  0  0
  -24.9166   -0.9926   -0.1033 C   0  0  0  0  0  0  0  0  0  0  0  0
  -24.7105    0.3825   -0.1058 C   0  0  0  0  0  0  0  0  0  0  0  0
  -26.3058    1.2529   -0.1312 S   0  0  0  0  0  0  0  0  0  0  0  0
  -29.4181   -1.6210   -0.1682 C   0  0  0  0  0  0  0  0  0  0  0  0
  -28.8231   -2.8227   -0.1583 N   0  0  0  0  0  0  0  0  0  0  0  0
  -30.2294   -4.2745   -0.1780 Te  0  0  0  0  0  2  0  0  0  0  0  0
  -31.5732   -2.7644   -0.2000 N   0  0  0  0  0  0  0  0  0  0  0  0
  -30.9268   -1.5884   -0.1909 C   0  0  0  0  0  0  0  0  0  0  0  0
  -21.8977    2.8898   -0.0786 C   0  0  0  0  0  0  0  0  0  0  0  0
  -23.2660    2.4924   -0.0983 C   0  0  0  0  0  0  0  0  0  0  0  0
  -23.4749    1.1174   -0.0911 C   0  0  0  0  0  0  0  0  0  0  0  0
  -21.8815    0.2440   -0.0575 S   0  0  0  0  0  0  0  0  0  0  0  0
  -20.9834    1.8407   -0.0548 C   0  0  0  0  0  0  0  0  0  0  0  0
  -19.5302    1.8600   -0.0288 C   0  0  0  0  0  0  0  0  0  0  0  0
  -18.7790    0.6830   -0.0032 C   0  0  0  0  0  0  0  0  0  0  0  0
  -17.3598    0.6478    0.0239 C   0  0  0  0  0  0  0  0  0  0  0  0
  -16.5504    1.7859    0.0282 C   0  0  0  0  0  0  0  0  0  0  0  0
  -15.1001    1.6937    0.0553 C   0  0  0  0  0  0  0  0  0  0  0  0
  -14.1343    2.6961    0.0628 C   0  0  0  0  0  0  0  0  0  0  0  0
  -12.7877    2.2311    0.0897 C   0  0  0  0  0  0  0  0  0  0  0  0
  -12.6479    0.8472    0.1044 C   0  0  0  0  0  0  0  0  0  0  0  0
  -14.2833    0.0544    0.0838 S   0  0  0  0  0  0  0  0  0  0  0  0
  -17.2541    3.0719    0.0028 C   0  0  0  0  0  0  0  0  0  0  0  0
  -16.6040    4.2450    0.0044 N   0  0  0  0  0  0  0  0  0  0  0  0
  -17.9421    5.7603   -0.0364 Te  0  0  0  0  0  2  0  0  0  0  0  0
  -19.3531    4.3130   -0.0498 N   0  0  0  0  0  0  0  0  0  0  0  0
  -18.7625    3.1092   -0.0266 C   0  0  0  0  0  0  0  0  0  0  0  0
   -9.9709   -1.8021    0.1733 C   0  0  0  0  0  0  0  0  0  0  0  0
  -11.3158   -1.3329    0.1518 C   0  0  0  0  0  0  0  0  0  0  0  0
  -11.4514    0.0513    0.1305 C   0  0  0  0  0  0  0  0  0  0  0  0
   -9.8134    0.8392    0.1373 S   0  0  0  0  0  0  0  0  0  0  0  0
   -9.0017   -0.8031    0.1695 C   0  0  0  0  0  0  0  0  0  0  0  0
   -7.5517   -0.9024    0.1850 C   0  0  0  0  0  0  0  0  0  0  0  0
   -6.7355    0.2308    0.1777 C   0  0  0  0  0  0  0  0  0  0  0  0
   -5.3161    0.1869    0.1887 C   0  0  0  0  0  0  0  0  0  0  0  0
   -4.5719   -0.9947    0.2080 C   0  0  0  0  0  0  0  0  0  0  0  0
   -3.1185   -0.9859    0.2140 C   0  0  0  0  0  0  0  0  0  0  0  0
   -2.2130   -2.0431    0.2275 C   0  0  0  0  0  0  0  0  0  0  0  0
   -0.8415   -1.6580    0.2260 C   0  0  0  0  0  0  0  0  0  0  0  0
   -0.6202   -0.2848    0.2117 C   0  0  0  0  0  0  0  0  0  0  0  0
   -2.2062    0.6029    0.1986 S   0  0  0  0  0  0  0  0  0  0  0  0
   -5.3472   -2.2391    0.2199 C   0  0  0  0  0  0  0  0  0  0  0  0
   -4.7640   -3.4466    0.2413 N   0  0  0  0  0  0  0  0  0  0  0  0
   -6.1835   -4.8853    0.2499 Te  0  0  0  0  0  2  0  0  0  0  0  0
   -7.5124   -3.3620    0.2196 N   0  0  0  0  0  0  0  0  0  0  0  0
   -6.8555   -2.1927    0.2081 C   0  0  0  0  0  0  0  0  0  0  0  0
    2.2204    2.1902    0.1964 C   0  0  0  0  0  0  0  0  0  0  0  0
    0.8477    1.8083    0.2050 C   0  0  0  0  0  0  0  0  0  0  0  0
    0.6234    0.4356    0.2050 C   0  0  0  0  0  0  0  0  0  0  0  0
    2.2073   -0.4558    0.1928 S   0  0  0  0  0  0  0  0  0  0  0  0
    3.1232    1.1307    0.1887 C   0  0  0  0  0  0  0  0  0  0  0  0
    4.5766    1.1339    0.1771 C   0  0  0  0  0  0  0  0  0  0  0  0
    5.3150   -0.0514    0.1650 C   0  0  0  0  0  0  0  0  0  0  0  0
    6.7340   -0.1024    0.1514 C   0  0  0  0  0  0  0  0  0  0  0  0
    7.5559    1.0267    0.1486 C   0  0  0  0  0  0  0  0  0  0  0  0
    9.0052    0.9186    0.1336 C   0  0  0  0  0  0  0  0  0  0  0  0
    9.9817    1.9106    0.1296 C   0  0  0  0  0  0  0  0  0  0  0  0
   11.3233    1.4313    0.1131 C   0  0  0  0  0  0  0  0  0  0  0  0
   11.4486    0.0459    0.1034 C   0  0  0  0  0  0  0  0  0  0  0  0
    9.8049   -0.7296    0.1161 S   0  0  0  0  0  0  0  0  0  0  0  0
    6.8661    2.3205    0.1618 C   0  0  0  0  0  0  0  0  0  0  0  0
    7.5290    3.4865    0.1619 N   0  0  0  0  0  0  0  0  0  0  0  0
    6.2073    5.0166    0.1838 Te  0  0  0  0  0  2  0  0  0  0  0  0
    4.7806    3.5849    0.1885 N   0  0  0  0  0  0  0  0  0  0  0  0
    5.3580    2.3745    0.1764 C   0  0  0  0  0  0  0  0  0  0  0  0
   14.1035   -2.6267    0.0541 C   0  0  0  0  0  0  0  0  0  0  0  0
   12.7622   -2.1466    0.0747 C   0  0  0  0  0  0  0  0  0  0  0  0
   12.6377   -0.7612    0.0849 C   0  0  0  0  0  0  0  0  0  0  0  0
   14.2819    0.0134    0.0695 S   0  0  0  0  0  0  0  0  0  0  0  0
   15.0805   -1.6353    0.0478 C   0  0  0  0  0  0  0  0  0  0  0  0
   16.5297   -1.7450    0.0259 C   0  0  0  0  0  0  0  0  0  0  0  0
   17.3532   -0.6172    0.0259 C   0  0  0  0  0  0  0  0  0  0  0  0
   18.7721   -0.6701    0.0027 C   0  0  0  0  0  0  0  0  0  0  0  0
   19.5085   -1.8563   -0.0232 C   0  0  0  0  0  0  0  0  0  0  0  0
   20.9619   -1.8558   -0.0473 C   0  0  0  0  0  0  0  0  0  0  0  0
   21.8619   -2.9172   -0.0717 C   0  0  0  0  0  0  0  0  0  0  0  0
   23.2355   -2.5384   -0.0905 C   0  0  0  0  0  0  0  0  0  0  0  0
   23.4631   -1.1664   -0.0816 C   0  0  0  0  0  0  0  0  0  0  0  0
   21.8817   -0.2714   -0.0482 S   0  0  0  0  0  0  0  0  0  0  0  0
   18.7252   -3.0957   -0.0247 C   0  0  0  0  0  0  0  0  0  0  0  0
   19.3006   -4.3069   -0.0485 N   0  0  0  0  0  0  0  0  0  0  0  0
   17.8721   -5.7365   -0.0406 Te  0  0  0  0  0  2  0  0  0  0  0  0
   16.5528   -4.2048   -0.0014 N   0  0  0  0  0  0  0  0  0  0  0  0
   17.2174   -3.0397    0.0009 C   0  0  0  0  0  0  0  0  0  0  0  0
   26.3100    1.3014   -0.1046 C   0  0  0  0  0  0  0  0  0  0  0  0
   24.9362    0.9222   -0.0854 C   0  0  0  0  0  0  0  0  0  0  0  0
   24.7091   -0.4496   -0.0955 C   0  0  0  0  0  0  0  0  0  0  0  0
   26.2910   -1.3440   -0.1316 S   0  0  0  0  0  0  0  0  0  0  0  0
   27.2098    0.2406   -0.1305 C   0  0  0  0  0  0  0  0  0  0  0  0
   28.6644    0.2417   -0.1555 C   0  0  0  0  0  0  0  0  0  0  0  0
   29.4013   -0.9422   -0.1829 C   0  0  0  0  0  0  0  0  0  0  0  0
   30.8228   -0.9927   -0.2082 C   0  0  0  0  0  0  0  0  0  0  0  0
   31.6432    0.1336   -0.2088 C   0  0  0  0  0  0  0  0  0  0  0  0
   33.0993    0.0263   -0.2341 C   0  0  0  0  0  0  0  0  0  0  0  0
   34.0707    1.0173   -0.2389 C   0  0  0  0  0  0  0  0  0  0  0  0
   35.4227    0.5300   -0.2652 C   0  0  0  0  0  0  0  0  0  0  0  0
   35.5177   -0.8434   -0.2813 C   0  0  0  0  0  0  0  0  0  0  0  0
   33.9039   -1.6209   -0.2641 S   0  0  0  0  0  0  0  0  0  0  0  0
   30.9547    1.4268   -0.1814 C   0  0  0  0  0  0  0  0  0  0  0  0
   31.6189    2.5929   -0.1788 N   0  0  0  0  0  0  0  0  0  0  0  0
   30.2982    4.1229   -0.1376 Te  0  0  0  0  0  2  0  0  0  0  0  0
   28.8703    2.6925   -0.1278 N   0  0  0  0  0  0  0  0  0  0  0  0
   29.4468    1.4820   -0.1537 C   0  0  0  0  0  0  0  0  0  0  0  0
  -33.7625   -2.2686   -0.2304 H   0  0  0  0  0  0  0  0  0  0  0  0
  -36.2646   -1.4244   -0.2640 H   0  0  0  0  0  0  0  0  0  0  0  0
  -36.4167    1.2223   -0.2668 H   0  0  0  0  0  0  0  0  0  0  0  0
  -31.3051    1.8115   -0.1997 H   0  0  0  0  0  0  0  0  0  0  0  0
  -28.8971    1.7622   -0.1652 H   0  0  0  0  0  0  0  0  0  0  0  0
  -26.6184   -2.4209   -0.1223 H   0  0  0  0  0  0  0  0  0  0  0  0
  -24.0967   -1.7033   -0.0893 H   0  0  0  0  0  0  0  0  0  0  0  0
  -21.5614    3.9173   -0.0810 H   0  0  0  0  0  0  0  0  0  0  0  0
  -24.0844    3.2047   -0.1177 H   0  0  0  0  0  0  0  0  0  0  0  0
  -19.2964   -0.2729   -0.0033 H   0  0  0  0  0  0  0  0  0  0  0  0
  -16.8908   -0.3326    0.0422 H   0  0  0  0  0  0  0  0  0  0  0  0
  -14.4191    3.7389    0.0485 H   0  0  0  0  0  0  0  0  0  0  0  0
  -11.9347    2.9018    0.0984 H   0  0  0  0  0  0  0  0  0  0  0  0
   -9.6894   -2.8457    0.1913 H   0  0  0  0  0  0  0  0  0  0  0  0
  -12.1710   -2.0009    0.1520 H   0  0  0  0  0  0  0  0  0  0  0  0
   -7.1989    1.2138    0.1616 H   0  0  0  0  0  0  0  0  0  0  0  0
   -4.7927    1.1396    0.1799 H   0  0  0  0  0  0  0  0  0  0  0  0
   -2.5585   -3.0673    0.2382 H   0  0  0  0  0  0  0  0  0  0  0  0
   -0.0293   -2.3776    0.2359 H   0  0  0  0  0  0  0  0  0  0  0  0
    2.5682    3.2138    0.1958 H   0  0  0  0  0  0  0  0  0  0  0  0
    0.0372    2.5298    0.2118 H   0  0  0  0  0  0  0  0  0  0  0  0
    4.7872   -1.0016    0.1651 H   0  0  0  0  0  0  0  0  0  0  0  0
    7.1923   -1.0878    0.1423 H   0  0  0  0  0  0  0  0  0  0  0  0
    9.7080    2.9565    0.1387 H   0  0  0  0  0  0  0  0  0  0  0  0
   12.1834    2.0928    0.1081 H   0  0  0  0  0  0  0  0  0  0  0  0
   14.3767   -3.6726    0.0430 H   0  0  0  0  0  0  0  0  0  0  0  0
   11.9018   -2.8078    0.0814 H   0  0  0  0  0  0  0  0  0  0  0  0
   16.8964    0.3689    0.0444 H   0  0  0  0  0  0  0  0  0  0  0  0
   19.3015    0.2793    0.0054 H   0  0  0  0  0  0  0  0  0  0  0  0
   21.5117   -3.9399   -0.0756 H   0  0  0  0  0  0  0  0  0  0  0  0
   24.0441   -3.2618   -0.1102 H   0  0  0  0  0  0  0  0  0  0  0  0
   26.6600    2.3242   -0.0998 H   0  0  0  0  0  0  0  0  0  0  0  0
   24.1275    1.6454   -0.0644 H   0  0  0  0  0  0  0  0  0  0  0  0
   28.8739   -1.8927   -0.1856 H   0  0  0  0  0  0  0  0  0  0  0  0
   31.2808   -1.9783   -0.2279 H   0  0  0  0  0  0  0  0  0  0  0  0
   33.7992    2.0638   -0.2233 H   0  0  0  0  0  0  0  0  0  0  0  0
   36.2884    1.1835   -0.2716 H   0  0  0  0  0  0  0  0  0  0  0  0
   36.4011   -1.4657   -0.3016 H   0  0  0  0  0  0  0  0  0  0  0  0
  1  2  1  0
  2  3  2  0
  3  4  1  0
  4  5  1  0
  5  6  1  0
  6  7  2  0
  7  8  1  0
  8  9  2  0
  9 10  1  0
 10 11  2  0
 11 12  1  0
 12 13  2  0
 13 14  1  0
  9 15  1  0
 15 16  2  0
 16 17  1  0
 17 18  1  0
 18 19  2  0
 20 21  1  0
 21 22  2  0
 22 23  1  0
 23 24  1  0
 24 25  1  0
 25 26  2  0
 26 27  1  0
 27 28  2  0
 28 29  1  0
 29 30  2  0
 30 31  1  0
 31 32  2  0
 32 33  1  0
 28 34  1  0
 34 35  2  0
 35 36  1  0
 36 37  1  0
 37 38  2  0
 39 40  1  0
 40 41  2  0
 41 42  1  0
 42 43  1  0
 43 44  1  0
 44 45  2  0
 45 46  1  0
 46 47  2  0
 47 48  1  0
 48 49  2  0
 49 50  1  0
 50 51  2  0
 51 52  1  0
 47 53  1  0
 53 54  2  0
 54 55  1  0
 55 56  1  0
 56 57  2  0
 58 59  1  0
 59 60  2  0
 60 61  1  0
 61 62  1  0
 62 63  1  0
 63 64  2  0
 64 65  1  0
 65 66  2  0
 66 67  1  0
 67 68  2  0
 68 69  1  0
 69 70  2  0
 70 71  1  0
 66 72  1  0
 72 73  2  0
 73 74  1  0
 74 75  1  0
 75 76  2  0
 77 78  1  0
 78 79  2  0
 79 80  1  0
 80 81  1  0
 81 82  1  0
 82 83  2  0
 83 84  1  0
 84 85  2  0
 85 86  1  0
 86 87  2  0
 87 88  1  0
 88 89  2  0
 89 90  1  0
 85 91  1  0
 91 92  2  0
 92 93  1  0
 93 94  1  0
 94 95  2  0
 96 97  1  0
 97 98  2  0
 98 99  1  0
 99100  1  0
100101  1  0
101102  2  0
102103  1  0
103104  2  0
104105  1  0
105106  2  0
106107  1  0
107108  2  0
108109  1  0
104110  1  0
110111  2  0
111112  1  0
112113  1  0
113114  2  0
  5  1  2  0
 19  6  1  0
 24 20  2  0
 38 25  1  0
 43 39  2  0
 57 44  1  0
 62 58  2  0
 76 63  1  0
 81 77  2  0
 95 82  1  0
100 96  2  0
114101  1  0
 14 10  1  0
 19 15  1  0
 33 29  1  0
 38 34  1  0
 52 48  1  0
 57 53  1  0
 71 67  1  0
 76 72  1  0
 90 86  1  0
 95 91  1  0
109105  1  0
114110  1  0
 13 22  1  0
 32 41  1  0
 51 60  1  0
 70 79  1  0
 89 98  1  0
  1115  1  0
  2116  1  0
  3117  1  0
  7118  1  0
  8119  1  0
 11120  1  0
 12121  1  0
 20122  1  0
 21123  1  0
 26124  1  0
 27125  1  0
 30126  1  0
 31127  1  0
 39128  1  0
 40129  1  0
 45130  1  0
 46131  1  0
 49132  1  0
 50133  1  0
 58134  1  0
 59135  1  0
 64136  1  0
 65137  1  0
 68138  1  0
 69139  1  0
 77140  1  0
 78141  1  0
 83142  1  0
 84143  1  0
 87144  1  0
 88145  1  0
 96146  1  0
 97147  1  0
102148  1  0
103149  1  0
106150  1  0
107151  1  0
108152  1  0
M  END
>  <_StereochemDone>  (7) 
1

>  <File>  (7) 
A-DAD_Hexamer/A-STeS6uv.gjf

>  <System_Code>  (7) 
STeS

>  <Unit_Type>  (7) 
Hexamer

>  <Family>  (7) 
benzochalcogenadiazole

>  <InChIKey>  (7) 
BWWVIUDCDVVYMK-UHFFFAOYSA-N

$$$$
A-SeOSe6uv
     RDKit          3D

152175  0  0  0  0  0  0  0  0999 V2000
  -34.8382   -1.8057   -0.3067 C   0  0  0  0  0  0  0  0  0  0  0  0
  -36.2452   -1.5133   -0.3253 C   0  0  0  0  0  0  0  0  0  0  0  0
  -36.5702   -0.1747   -0.3400 C   0  0  0  0  0  0  0  0  0  0  0  0
  -35.0242    0.9357   -0.3319 Se  0  0  0  0  0  2  0  0  0  0  0  0
  -33.9875   -0.7073   -0.3064 C   0  0  0  0  0  0  0  0  0  0  0  0
  -32.5318   -0.6999   -0.2888 C   0  0  0  0  0  0  0  0  0  0  0  0
  -31.7599    0.4663   -0.2877 C   0  0  0  0  0  0  0  0  0  0  0  0
  -30.3338    0.4828   -0.2680 C   0  0  0  0  0  0  0  0  0  0  0  0
  -29.5359   -0.6669   -0.2475 C   0  0  0  0  0  0  0  0  0  0  0  0
  -28.0849   -0.6415   -0.2245 C   0  0  0  0  0  0  0  0  0  0  0  0
  -27.2074   -1.7226   -0.2034 C   0  0  0  0  0  0  0  0  0  0  0  0
  -25.8183   -1.4074   -0.1812 C   0  0  0  0  0  0  0  0  0  0  0  0
  -25.4844   -0.0557   -0.1832 C   0  0  0  0  0  0  0  0  0  0  0  0
  -27.0905    1.0230   -0.2168 Se  0  0  0  0  0  2  0  0  0  0  0  0
  -30.2909   -1.9040   -0.2495 C   0  0  0  0  0  0  0  0  0  0  0  0
  -29.8299   -3.1683   -0.2345 N   0  0  0  0  0  0  0  0  0  0  0  0
  -30.9981   -3.9817   -0.2450 O   0  0  0  0  0  0  0  0  0  0  0  0
  -32.1833   -3.1943   -0.2666 N   0  0  0  0  0  0  0  0  0  0  0  0
  -31.7497   -1.9195   -0.2695 C   0  0  0  0  0  0  0  0  0  0  0  0
  -22.4460    2.2005   -0.1446 C   0  0  0  0  0  0  0  0  0  0  0  0
  -23.8360    1.8907   -0.1778 C   0  0  0  0  0  0  0  0  0  0  0  0
  -24.1754    0.5402   -0.1607 C   0  0  0  0  0  0  0  0  0  0  0  0
  -22.5748   -0.5445   -0.0937 Se  0  0  0  0  0  2  0  0  0  0  0  0
  -21.5730    1.1156   -0.0977 C   0  0  0  0  0  0  0  0  0  0  0  0
  -20.1242    1.1313   -0.0532 C   0  0  0  0  0  0  0  0  0  0  0  0
  -19.3369   -0.0268   -0.0012 C   0  0  0  0  0  0  0  0  0  0  0  0
  -17.9142   -0.0239    0.0457 C   0  0  0  0  0  0  0  0  0  0  0  0
  -17.1295    1.1371    0.0452 C   0  0  0  0  0  0  0  0  0  0  0  0
  -15.6806    1.1261    0.0939 C   0  0  0  0  0  0  0  0  0  0  0  0
  -14.8086    2.2130    0.0893 C   0  0  0  0  0  0  0  0  0  0  0  0
  -13.4185    1.9066    0.1427 C   0  0  0  0  0  0  0  0  0  0  0  0
  -13.0781    0.5570    0.1949 C   0  0  0  0  0  0  0  0  0  0  0  0
  -14.6780   -0.5310    0.1770 Se  0  0  0  0  0  2  0  0  0  0  0  0
  -17.8988    2.3642   -0.0088 C   0  0  0  0  0  0  0  0  0  0  0  0
  -17.4531    3.6338   -0.0232 N   0  0  0  0  0  0  0  0  0  0  0  0
  -18.6304    4.4326   -0.0803 O   0  0  0  0  0  0  0  0  0  0  0  0
  -19.8057    3.6294   -0.1005 N   0  0  0  0  0  0  0  0  0  0  0  0
  -19.3572    2.3614   -0.0566 C   0  0  0  0  0  0  0  0  0  0  0  0
  -10.0549   -1.7088    0.3643 C   0  0  0  0  0  0  0  0  0  0  0  0
  -11.4414   -1.3900    0.3194 C   0  0  0  0  0  0  0  0  0  0  0  0
  -11.7705   -0.0381    0.2533 C   0  0  0  0  0  0  0  0  0  0  0  0
  -10.1604    1.0356    0.2433 Se  0  0  0  0  0  2  0  0  0  0  0  0
   -9.1720   -0.6307    0.3372 C   0  0  0  0  0  0  0  0  0  0  0  0
   -7.7230   -0.6635    0.3665 C   0  0  0  0  0  0  0  0  0  0  0  0
   -6.9160    0.4820    0.3310 C   0  0  0  0  0  0  0  0  0  0  0  0
   -5.4923    0.4571    0.3519 C   0  0  0  0  0  0  0  0  0  0  0  0
   -4.7274   -0.7160    0.4104 C   0  0  0  0  0  0  0  0  0  0  0  0
   -3.2779   -0.7334    0.4214 C   0  0  0  0  0  0  0  0  0  0  0  0
   -2.4327   -1.8403    0.4727 C   0  0  0  0  0  0  0  0  0  0  0  0
   -1.0353   -1.5682    0.4629 C   0  0  0  0  0  0  0  0  0  0  0  0
   -0.6601   -0.2281    0.4039 C   0  0  0  0  0  0  0  0  0  0  0  0
   -2.2328    0.8985    0.3511 Se  0  0  0  0  0  2  0  0  0  0  0  0
   -5.5183   -1.9302    0.4537 C   0  0  0  0  0  0  0  0  0  0  0  0
   -5.0942   -3.2060    0.5156 N   0  0  0  0  0  0  0  0  0  0  0  0
   -6.2851   -3.9858    0.5333 O   0  0  0  0  0  0  0  0  0  0  0  0
   -7.4468   -3.1650    0.4811 N   0  0  0  0  0  0  0  0  0  0  0  0
   -6.9767   -1.9047    0.4322 C   0  0  0  0  0  0  0  0  0  0  0  0
    2.4400    1.9387    0.3213 C   0  0  0  0  0  0  0  0  0  0  0  0
    1.0425    1.6686    0.3582 C   0  0  0  0  0  0  0  0  0  0  0  0
    0.6655    0.3278    0.3741 C   0  0  0  0  0  0  0  0  0  0  0  0
    2.2360   -0.8024    0.3387 Se  0  0  0  0  0  2  0  0  0  0  0  0
    3.2831    0.8292    0.3039 C   0  0  0  0  0  0  0  0  0  0  0  0
    4.7320    0.8077    0.2603 C   0  0  0  0  0  0  0  0  0  0  0  0
    5.4929   -0.3691    0.2371 C   0  0  0  0  0  0  0  0  0  0  0  0
    6.9157   -0.3996    0.1880 C   0  0  0  0  0  0  0  0  0  0  0  0
    7.7261    0.7434    0.1572 C   0  0  0  0  0  0  0  0  0  0  0  0
    9.1742    0.7033    0.1042 C   0  0  0  0  0  0  0  0  0  0  0  0
   10.0622    1.7770    0.0780 C   0  0  0  0  0  0  0  0  0  0  0  0
   11.4466    1.4495    0.0268 C   0  0  0  0  0  0  0  0  0  0  0  0
   11.7683    0.0944    0.0073 C   0  0  0  0  0  0  0  0  0  0  0  0
   10.1533   -0.9703    0.0594 Se  0  0  0  0  0  2  0  0  0  0  0  0
    6.9842    1.9887    0.1827 C   0  0  0  0  0  0  0  0  0  0  0  0
    7.4581    3.2481    0.1663 N   0  0  0  0  0  0  0  0  0  0  0  0
    6.2995    4.0742    0.2058 O   0  0  0  0  0  0  0  0  0  0  0  0
    5.1067    3.2984    0.2469 N   0  0  0  0  0  0  0  0  0  0  0  0
    5.5265    2.0198    0.2328 C   0  0  0  0  0  0  0  0  0  0  0  0
   14.7889   -2.1821   -0.1212 C   0  0  0  0  0  0  0  0  0  0  0  0
   13.4011   -1.8635   -0.0810 C   0  0  0  0  0  0  0  0  0  0  0  0
   13.0718   -0.5107   -0.0407 C   0  0  0  0  0  0  0  0  0  0  0  0
   14.6811    0.5634   -0.0520 Se  0  0  0  0  0  2  0  0  0  0  0  0
   15.6703   -1.1027   -0.1159 C   0  0  0  0  0  0  0  0  0  0  0  0
   17.1194   -1.1274   -0.1473 C   0  0  0  0  0  0  0  0  0  0  0  0
   17.9150    0.0264   -0.1418 C   0  0  0  0  0  0  0  0  0  0  0  0
   19.3383    0.0156   -0.1654 C   0  0  0  0  0  0  0  0  0  0  0  0
   20.1154   -1.1502   -0.1969 C   0  0  0  0  0  0  0  0  0  0  0  0
   21.5649   -1.1483   -0.2134 C   0  0  0  0  0  0  0  0  0  0  0  0
   22.4289   -2.2412   -0.2389 C   0  0  0  0  0  0  0  0  0  0  0  0
   23.8222   -1.9442   -0.2451 C   0  0  0  0  0  0  0  0  0  0  0  0
   24.1733   -0.5967   -0.2259 C   0  0  0  0  0  0  0  0  0  0  0  0
   22.5813    0.5025   -0.1944 Se  0  0  0  0  0  2  0  0  0  0  0  0
   19.3370   -2.3729   -0.2081 C   0  0  0  0  0  0  0  0  0  0  0  0
   19.7743   -3.6452   -0.2399 N   0  0  0  0  0  0  0  0  0  0  0  0
   18.5914   -4.4374   -0.2353 O   0  0  0  0  0  0  0  0  0  0  0  0
   17.4208   -3.6275   -0.2003 N   0  0  0  0  0  0  0  0  0  0  0  0
   17.8780   -2.3619   -0.1839 C   0  0  0  0  0  0  0  0  0  0  0  0
   27.2168    1.6493   -0.2231 C   0  0  0  0  0  0  0  0  0  0  0  0
   25.8266    1.3401   -0.2351 C   0  0  0  0  0  0  0  0  0  0  0  0
   25.4865   -0.0099   -0.2228 C   0  0  0  0  0  0  0  0  0  0  0  0
   27.0883   -1.0957   -0.1918 Se  0  0  0  0  0  2  0  0  0  0  0  0
   28.0901    0.5646   -0.1998 C   0  0  0  0  0  0  0  0  0  0  0  0
   29.5413    0.5869   -0.1798 C   0  0  0  0  0  0  0  0  0  0  0  0
   30.3382   -0.5634   -0.1532 C   0  0  0  0  0  0  0  0  0  0  0  0
   31.7647   -0.5480   -0.1297 C   0  0  0  0  0  0  0  0  0  0  0  0
   32.5374    0.6177   -0.1303 C   0  0  0  0  0  0  0  0  0  0  0  0
   33.9933    0.6257   -0.1040 C   0  0  0  0  0  0  0  0  0  0  0  0
   34.8430    1.7251   -0.1042 C   0  0  0  0  0  0  0  0  0  0  0  0
   36.2502    1.4343   -0.0743 C   0  0  0  0  0  0  0  0  0  0  0  0
   36.5764    0.0960   -0.0489 C   0  0  0  0  0  0  0  0  0  0  0  0
   35.0314   -1.0160   -0.0610 Se  0  0  0  0  0  2  0  0  0  0  0  0
   31.7563    1.8379   -0.1588 C   0  0  0  0  0  0  0  0  0  0  0  0
   32.1910    3.1123   -0.1673 N   0  0  0  0  0  0  0  0  0  0  0  0
   31.0067    3.9007   -0.1969 O   0  0  0  0  0  0  0  0  0  0  0  0
   29.8379    3.0883   -0.2064 N   0  0  0  0  0  0  0  0  0  0  0  0
   30.2976    1.8236   -0.1830 C   0  0  0  0  0  0  0  0  0  0  0  0
  -34.4556   -2.8198   -0.2939 H   0  0  0  0  0  0  0  0  0  0  0  0
  -36.9992   -2.2943   -0.3269 H   0  0  0  0  0  0  0  0  0  0  0  0
  -37.5581    0.2664   -0.3548 H   0  0  0  0  0  0  0  0  0  0  0  0
  -32.2628    1.4303   -0.3020 H   0  0  0  0  0  0  0  0  0  0  0  0
  -29.8533    1.4583   -0.2688 H   0  0  0  0  0  0  0  0  0  0  0  0
  -27.5706   -2.7437   -0.2038 H   0  0  0  0  0  0  0  0  0  0  0  0
  -25.0597   -2.1854   -0.1644 H   0  0  0  0  0  0  0  0  0  0  0  0
  -22.0782    3.2200   -0.1543 H   0  0  0  0  0  0  0  0  0  0  0  0
  -24.5915    2.6709   -0.2154 H   0  0  0  0  0  0  0  0  0  0  0  0
  -19.8272   -0.9973    0.0055 H   0  0  0  0  0  0  0  0  0  0  0  0
  -17.4216   -0.9926    0.0836 H   0  0  0  0  0  0  0  0  0  0  0  0
  -15.1775    3.2313    0.0469 H   0  0  0  0  0  0  0  0  0  0  0  0
  -12.6639    2.6884    0.1435 H   0  0  0  0  0  0  0  0  0  0  0  0
   -9.6962   -2.7300    0.4166 H   0  0  0  0  0  0  0  0  0  0  0  0
  -12.2031   -2.1650    0.3364 H   0  0  0  0  0  0  0  0  0  0  0  0
   -7.3904    1.4594    0.2819 H   0  0  0  0  0  0  0  0  0  0  0  0
   -4.9826    1.4172    0.3169 H   0  0  0  0  0  0  0  0  0  0  0  0
   -2.8271   -2.8487    0.5167 H   0  0  0  0  0  0  0  0  0  0  0  0
   -0.3005   -2.3677    0.5021 H   0  0  0  0  0  0  0  0  0  0  0  0
    2.8358    2.9474    0.3070 H   0  0  0  0  0  0  0  0  0  0  0  0
    0.3090    2.4702    0.3756 H   0  0  0  0  0  0  0  0  0  0  0  0
    4.9806   -1.3281    0.2557 H   0  0  0  0  0  0  0  0  0  0  0  0
    7.3868   -1.3796    0.1737 H   0  0  0  0  0  0  0  0  0  0  0  0
    9.7088    2.8013    0.0959 H   0  0  0  0  0  0  0  0  0  0  0  0
   12.2120    2.2205    0.0026 H   0  0  0  0  0  0  0  0  0  0  0  0
   15.1492   -3.2038   -0.1541 H   0  0  0  0  0  0  0  0  0  0  0  0
   12.6397   -2.6389   -0.0831 H   0  0  0  0  0  0  0  0  0  0  0  0
   17.4309    0.9998   -0.1164 H   0  0  0  0  0  0  0  0  0  0  0  0
   19.8375    0.9816   -0.1559 H   0  0  0  0  0  0  0  0  0  0  0  0
   22.0521   -3.2574   -0.2528 H   0  0  0  0  0  0  0  0  0  0  0  0
   24.5712   -2.7312   -0.2660 H   0  0  0  0  0  0  0  0  0  0  0  0
   27.5843    2.6688   -0.2313 H   0  0  0  0  0  0  0  0  0  0  0  0
   25.0715    2.1212   -0.2548 H   0  0  0  0  0  0  0  0  0  0  0  0
   29.8567   -1.5386   -0.1488 H   0  0  0  0  0  0  0  0  0  0  0  0
   32.2669   -1.5124   -0.1096 H   0  0  0  0  0  0  0  0  0  0  0  0
   34.4596    2.7387   -0.1258 H   0  0  0  0  0  0  0  0  0  0  0  0
   37.0033    2.2161   -0.0718 H   0  0  0  0  0  0  0  0  0  0  0  0
   37.5648   -0.3438   -0.0244 H   0  0  0  0  0  0  0  0  0  0  0  0
  1  2  1  0
  2  3  2  0
  3  4  1  0
  4  5  1  0
  5  6  1  0
  6  7  2  0
  7  8  1  0
  8  9  2  0
  9 10  1  0
 10 11  2  0
 11 12  1  0
 12 13  2  0
 13 14  1  0
  9 15  1  0
 15 16  2  0
 16 17  1  0
 17 18  1  0
 18 19  2  0
 20 21  1  0
 21 22  2  0
 22 23  1  0
 23 24  1  0
 24 25  1  0
 25 26  2  0
 26 27  1  0
 27 28  2  0
 28 29  1  0
 29 30  2  0
 30 31  1  0
 31 32  2  0
 32 33  1  0
 28 34  1  0
 34 35  2  0
 35 36  1  0
 36 37  1  0
 37 38  2  0
 39 40  1  0
 40 41  2  0
 41 42  1  0
 42 43  1  0
 43 44  1  0
 44 45  2  0
 45 46  1  0
 46 47  2  0
 47 48  1  0
 48 49  2  0
 49 50  1  0
 50 51  2  0
 51 52  1  0
 47 53  1  0
 53 54  2  0
 54 55  1  0
 55 56  1  0
 56 57  2  0
 58 59  1  0
 59 60  2  0
 60 61  1  0
 61 62  1  0
 62 63  1  0
 63 64  2  0
 64 65  1  0
 65 66  2  0
 66 67  1  0
 67 68  2  0
 68 69  1  0
 69 70  2  0
 70 71  1  0
 66 72  1  0
 72 73  2  0
 73 74  1  0
 74 75  1  0
 75 76  2  0
 77 78  1  0
 78 79  2  0
 79 80  1  0
 80 81  1  0
 81 82  1  0
 82 83  2  0
 83 84  1  0
 84 85  2  0
 85 86  1  0
 86 87  2  0
 87 88  1  0
 88 89  2  0
 89 90  1  0
 85 91  1  0
 91 92  2  0
 92 93  1  0
 93 94  1  0
 94 95  2  0
 96 97  1  0
 97 98  2  0
 98 99  1  0
 99100  1  0
100101  1  0
101102  2  0
102103  1  0
103104  2  0
104105  1  0
105106  2  0
106107  1  0
107108  2  0
108109  1  0
104110  1  0
110111  2  0
111112  1  0
112113  1  0
113114  2  0
  5  1  2  0
 19  6  1  0
 24 20  2  0
 38 25  1  0
 43 39  2  0
 57 44  1  0
 62 58  2  0
 76 63  1  0
 81 77  2  0
 95 82  1  0
100 96  2  0
114101  1  0
 14 10  1  0
 19 15  1  0
 33 29  1  0
 38 34  1  0
 52 48  1  0
 57 53  1  0
 71 67  1  0
 76 72  1  0
 90 86  1  0
 95 91  1  0
109105  1  0
114110  1  0
 13 22  1  0
 32 41  1  0
 51 60  1  0
 70 79  1  0
 89 98  1  0
  1115  1  0
  2116  1  0
  3117  1  0
  7118  1  0
  8119  1  0
 11120  1  0
 12121  1  0
 20122  1  0
 21123  1  0
 26124  1  0
 27125  1  0
 30126  1  0
 31127  1  0
 39128  1  0
 40129  1  0
 45130  1  0
 46131  1  0
 49132  1  0
 50133  1  0
 58134  1  0
 59135  1  0
 64136  1  0
 65137  1  0
 68138  1  0
 69139  1  0
 77140  1  0
 78141  1  0
 83142  1  0
 84143  1  0
 87144  1  0
 88145  1  0
 96146  1  0
 97147  1  0
102148  1  0
103149  1  0
106150  1  0
107151  1  0
108152  1  0
M  END
>  <_StereochemDone>  (8) 
1

>  <File>  (8) 
A-DAD_Hexamer/A-SeOSe6uv.gjf

>  <System_Code>  (8) 
SeOSe

>  <Unit_Type>  (8) 
Hexamer

>  <Family>  (8) 
benzochalcogenadiazole

>  <InChIKey>  (8) 
FNOFMLREMFJALK-UHFFFAOYSA-N

$$$$
A-SeSSe6uv
     RDKit          3D

152175  0  0  0  0  0  0  0  0999 V2000
  -35.0670    1.8810    0.6319 C   0  0  0  0  0  0  0  0  0  0  0  0
  -36.4867    1.6628    0.6690 C   0  0  0  0  0  0  0  0  0  0  0  0
  -36.8737    0.3406    0.5476 C   0  0  0  0  0  0  0  0  0  0  0  0
  -35.3858   -0.8377    0.3615 Se  0  0  0  0  0  2  0  0  0  0  0  0
  -34.2676    0.7481    0.4802 C   0  0  0  0  0  0  0  0  0  0  0  0
  -32.8066    0.7201    0.4147 C   0  0  0  0  0  0  0  0  0  0  0  0
  -32.0191    1.8780    0.5063 C   0  0  0  0  0  0  0  0  0  0  0  0
  -30.5943    1.8814    0.4453 C   0  0  0  0  0  0  0  0  0  0  0  0
  -29.8154    0.7238    0.2863 C   0  0  0  0  0  0  0  0  0  0  0  0
  -28.3602    0.7461    0.2275 C   0  0  0  0  0  0  0  0  0  0  0  0
  -27.5435    1.8782    0.3192 C   0  0  0  0  0  0  0  0  0  0  0  0
  -26.1389    1.6644    0.2366 C   0  0  0  0  0  0  0  0  0  0  0  0
  -25.7277    0.3380    0.0711 C   0  0  0  0  0  0  0  0  0  0  0  0
  -27.2691   -0.8419    0.0046 Se  0  0  0  0  0  2  0  0  0  0  0  0
  -30.5773   -0.5090    0.1853 C   0  0  0  0  0  0  0  0  0  0  0  0
  -30.0165   -1.7237    0.0303 N   0  0  0  0  0  0  0  0  0  0  0  0
  -31.3229   -2.9197   -0.0413 S   0  0  0  0  0  0  0  0  0  0  0  0
  -32.6219   -1.7301    0.1431 N   0  0  0  0  0  0  0  0  0  0  0  0
  -32.0555   -0.5112    0.2493 C   0  0  0  0  0  0  0  0  0  0  0  0
  -22.5487   -1.7009   -0.2808 C   0  0  0  0  0  0  0  0  0  0  0  0
  -23.9520   -1.4856   -0.2069 C   0  0  0  0  0  0  0  0  0  0  0  0
  -24.3630   -0.1601   -0.0384 C   0  0  0  0  0  0  0  0  0  0  0  0
  -22.8375    1.0199    0.0410 Se  0  0  0  0  0  2  0  0  0  0  0  0
  -21.7311   -0.5705   -0.1781 C   0  0  0  0  0  0  0  0  0  0  0  0
  -20.2780   -0.5502   -0.2186 C   0  0  0  0  0  0  0  0  0  0  0  0
  -19.4985   -1.7114   -0.3654 C   0  0  0  0  0  0  0  0  0  0  0  0
  -18.0772   -1.7141   -0.3993 C   0  0  0  0  0  0  0  0  0  0  0  0
  -17.2873   -0.5559   -0.2901 C   0  0  0  0  0  0  0  0  0  0  0  0
  -15.8341   -0.5819   -0.3165 C   0  0  0  0  0  0  0  0  0  0  0  0
  -15.0263   -1.7176   -0.4399 C   0  0  0  0  0  0  0  0  0  0  0  0
  -13.6206   -1.5075   -0.4358 C   0  0  0  0  0  0  0  0  0  0  0  0
  -13.1971   -0.1808   -0.3099 C   0  0  0  0  0  0  0  0  0  0  0  0
  -14.7385    1.0066   -0.1718 Se  0  0  0  0  0  2  0  0  0  0  0  0
  -18.0384    0.6773   -0.1421 C   0  0  0  0  0  0  0  0  0  0  0  0
  -17.4695    1.8922   -0.0257 N   0  0  0  0  0  0  0  0  0  0  0  0
  -18.7794    3.0931    0.1332 S   0  0  0  0  0  0  0  0  0  0  0  0
  -20.0743    1.8970    0.0385 N   0  0  0  0  0  0  0  0  0  0  0  0
  -19.5161    0.6800   -0.1059 C   0  0  0  0  0  0  0  0  0  0  0  0
  -10.0158    1.8502   -0.1808 C   0  0  0  0  0  0  0  0  0  0  0  0
  -11.4214    1.6419   -0.2110 C   0  0  0  0  0  0  0  0  0  0  0  0
  -11.8450    0.3108   -0.2723 C   0  0  0  0  0  0  0  0  0  0  0  0
  -10.3207   -0.8812   -0.2905 Se  0  0  0  0  0  2  0  0  0  0  0  0
   -9.2082    0.7082   -0.2129 C   0  0  0  0  0  0  0  0  0  0  0  0
   -7.7551    0.6790   -0.1927 C   0  0  0  0  0  0  0  0  0  0  0  0
   -6.9652    1.8420   -0.1562 C   0  0  0  0  0  0  0  0  0  0  0  0
   -5.5439    1.8355   -0.1311 C   0  0  0  0  0  0  0  0  0  0  0  0
   -4.7642    0.6652   -0.1405 C   0  0  0  0  0  0  0  0  0  0  0  0
   -3.3110    0.6808   -0.1159 C   0  0  0  0  0  0  0  0  0  0  0  0
   -2.4931    1.8160   -0.1000 C   0  0  0  0  0  0  0  0  0  0  0  0
   -1.0896    1.5942   -0.0719 C   0  0  0  0  0  0  0  0  0  0  0  0
   -0.6780    0.2579   -0.0611 C   0  0  0  0  0  0  0  0  0  0  0  0
   -2.2209   -0.9202   -0.0975 Se  0  0  0  0  0  2  0  0  0  0  0  0
   -5.5261   -0.5696   -0.1780 C   0  0  0  0  0  0  0  0  0  0  0  0
   -4.9674   -1.7945   -0.1912 N   0  0  0  0  0  0  0  0  0  0  0  0
   -6.2794   -2.9893   -0.2408 S   0  0  0  0  0  0  0  0  0  0  0  0
   -7.5732   -1.7824   -0.2422 N   0  0  0  0  0  0  0  0  0  0  0  0
   -7.0040   -0.5627   -0.2058 C   0  0  0  0  0  0  0  0  0  0  0  0
    2.4863   -1.8027    0.0505 C   0  0  0  0  0  0  0  0  0  0  0  0
    1.0815   -1.5805    0.0377 C   0  0  0  0  0  0  0  0  0  0  0  0
    0.6702   -0.2450   -0.0332 C   0  0  0  0  0  0  0  0  0  0  0  0
    2.2139    0.9325   -0.1000 Se  0  0  0  0  0  2  0  0  0  0  0  0
    3.3054   -0.6687   -0.0105 C   0  0  0  0  0  0  0  0  0  0  0  0
    4.7598   -0.6534   -0.0101 C   0  0  0  0  0  0  0  0  0  0  0  0
    5.5397   -1.8222    0.0684 C   0  0  0  0  0  0  0  0  0  0  0  0
    6.9622   -1.8289    0.0669 C   0  0  0  0  0  0  0  0  0  0  0  0
    7.7533   -0.6676   -0.0133 C   0  0  0  0  0  0  0  0  0  0  0  0
    9.2075   -0.6969   -0.0143 C   0  0  0  0  0  0  0  0  0  0  0  0
   10.0156   -1.8373    0.0695 C   0  0  0  0  0  0  0  0  0  0  0  0
   11.4224   -1.6293    0.0463 C   0  0  0  0  0  0  0  0  0  0  0  0
   11.8468   -0.2999   -0.0594 C   0  0  0  0  0  0  0  0  0  0  0  0
   10.3144    0.8915   -0.1400 Se  0  0  0  0  0  2  0  0  0  0  0  0
    7.0020    0.5727   -0.0958 C   0  0  0  0  0  0  0  0  0  0  0  0
    7.5722    1.7908   -0.1792 N   0  0  0  0  0  0  0  0  0  0  0  0
    6.2738    2.9962   -0.2566 S   0  0  0  0  0  0  0  0  0  0  0  0
    4.9642    1.8032   -0.1737 N   0  0  0  0  0  0  0  0  0  0  0  0
    5.5229    0.5797   -0.0932 C   0  0  0  0  0  0  0  0  0  0  0  0
   15.0301    1.7288   -0.2409 C   0  0  0  0  0  0  0  0  0  0  0  0
   13.6235    1.5195   -0.2233 C   0  0  0  0  0  0  0  0  0  0  0  0
   13.1998    0.1910   -0.1050 C   0  0  0  0  0  0  0  0  0  0  0  0
   14.7330   -0.9977    0.0002 Se  0  0  0  0  0  2  0  0  0  0  0  0
   15.8389    0.5904   -0.1386 C   0  0  0  0  0  0  0  0  0  0  0  0
   17.2932    0.5631   -0.1293 C   0  0  0  0  0  0  0  0  0  0  0  0
   18.0832    1.7239   -0.2242 C   0  0  0  0  0  0  0  0  0  0  0  0
   19.5057    1.7196   -0.2122 C   0  0  0  0  0  0  0  0  0  0  0  0
   20.2867    0.5539   -0.1041 C   0  0  0  0  0  0  0  0  0  0  0  0
   21.7413    0.5723   -0.0888 C   0  0  0  0  0  0  0  0  0  0  0  0
   22.5587    1.7057   -0.1751 C   0  0  0  0  0  0  0  0  0  0  0  0
   23.9639    1.4872   -0.1343 C   0  0  0  0  0  0  0  0  0  0  0  0
   24.3767    0.1561   -0.0120 C   0  0  0  0  0  0  0  0  0  0  0  0
   22.8349   -1.0229    0.0652 Se  0  0  0  0  0  2  0  0  0  0  0  0
   19.5250   -0.6788   -0.0053 C   0  0  0  0  0  0  0  0  0  0  0  0
   20.0851   -1.8996    0.1037 N   0  0  0  0  0  0  0  0  0  0  0  0
   18.7765   -3.0926    0.1940 S   0  0  0  0  0  0  0  0  0  0  0  0
   17.4766   -1.8918    0.0817 N   0  0  0  0  0  0  0  0  0  0  0  0
   18.0458   -0.6744   -0.0178 C   0  0  0  0  0  0  0  0  0  0  0  0
   27.5457   -1.8922    0.2153 C   0  0  0  0  0  0  0  0  0  0  0  0
   26.1399   -1.6757    0.1641 C   0  0  0  0  0  0  0  0  0  0  0  0
   25.7263   -0.3439    0.0566 C   0  0  0  0  0  0  0  0  0  0  0  0
   27.2669    0.8380    0.0112 Se  0  0  0  0  0  2  0  0  0  0  0  0
   28.3611   -0.7572    0.1542 C   0  0  0  0  0  0  0  0  0  0  0  0
   29.8173   -0.7374    0.1897 C   0  0  0  0  0  0  0  0  0  0  0  0
   30.5977   -1.9011    0.2863 C   0  0  0  0  0  0  0  0  0  0  0  0
   32.0234   -1.9008    0.3246 C   0  0  0  0  0  0  0  0  0  0  0  0
   32.8104   -0.7404    0.2698 C   0  0  0  0  0  0  0  0  0  0  0  0
   34.2723   -0.7726    0.3108 C   0  0  0  0  0  0  0  0  0  0  0  0
   35.0719   -1.9124    0.3995 C   0  0  0  0  0  0  0  0  0  0  0  0
   36.4925   -1.6983    0.4248 C   0  0  0  0  0  0  0  0  0  0  0  0
   36.8803   -0.3724    0.3568 C   0  0  0  0  0  0  0  0  0  0  0  0
   35.3917    0.8151    0.2461 Se  0  0  0  0  0  2  0  0  0  0  0  0
   32.0578    0.4972    0.1690 C   0  0  0  0  0  0  0  0  0  0  0  0
   32.6231    1.7194    0.1053 N   0  0  0  0  0  0  0  0  0  0  0  0
   31.3225    2.9171   -0.0085 S   0  0  0  0  0  0  0  0  0  0  0  0
   30.0167    1.7190    0.0336 N   0  0  0  0  0  0  0  0  0  0  0  0
   30.5786    0.4983    0.1286 C   0  0  0  0  0  0  0  0  0  0  0  0
  -34.6495    2.8820    0.7183 H   0  0  0  0  0  0  0  0  0  0  0  0
  -37.1984    2.4779    0.7836 H   0  0  0  0  0  0  0  0  0  0  0  0
  -37.8876   -0.0451    0.5499 H   0  0  0  0  0  0  0  0  0  0  0  0
  -32.5093    2.8409    0.6322 H   0  0  0  0  0  0  0  0  0  0  0  0
  -30.0987    2.8463    0.5289 H   0  0  0  0  0  0  0  0  0  0  0  0
  -27.9524    2.8777    0.4479 H   0  0  0  0  0  0  0  0  0  0  0  0
  -25.4300    2.4887    0.2998 H   0  0  0  0  0  0  0  0  0  0  0  0
  -22.1403   -2.6998   -0.4101 H   0  0  0  0  0  0  0  0  0  0  0  0
  -24.6611   -2.3081   -0.2777 H   0  0  0  0  0  0  0  0  0  0  0  0
  -19.9966   -2.6733   -0.4576 H   0  0  0  0  0  0  0  0  0  0  0  0
  -17.5877   -2.6779   -0.5154 H   0  0  0  0  0  0  0  0  0  0  0  0
  -15.4442   -2.7164   -0.5341 H   0  0  0  0  0  0  0  0  0  0  0  0
  -12.9184   -2.3336   -0.5304 H   0  0  0  0  0  0  0  0  0  0  0  0
   -9.6041    2.8560   -0.1341 H   0  0  0  0  0  0  0  0  0  0  0  0
  -12.1315    2.4768   -0.1925 H   0  0  0  0  0  0  0  0  0  0  0  0
   -7.4550    2.8125   -0.1463 H   0  0  0  0  0  0  0  0  0  0  0  0
   -5.0458    2.8014   -0.1017 H   0  0  0  0  0  0  0  0  0  0  0  0
   -2.9022    2.8228   -0.1087 H   0  0  0  0  0  0  0  0  0  0  0  0
   -0.3802    2.4193   -0.0546 H   0  0  0  0  0  0  0  0  0  0  0  0
    2.8952   -2.8089    0.1053 H   0  0  0  0  0  0  0  0  0  0  0  0
    0.3711   -2.4045    0.0858 H   0  0  0  0  0  0  0  0  0  0  0  0
    5.0407   -2.7867    0.1352 H   0  0  0  0  0  0  0  0  0  0  0  0
    7.4520   -2.7982    0.1316 H   0  0  0  0  0  0  0  0  0  0  0  0
    9.5970   -2.8382    0.1491 H   0  0  0  0  0  0  0  0  0  0  0  0
   12.1248   -2.4595    0.1065 H   0  0  0  0  0  0  0  0  0  0  0  0
   15.4481    2.7291   -0.3296 H   0  0  0  0  0  0  0  0  0  0  0  0
   12.9206    2.3481   -0.2986 H   0  0  0  0  0  0  0  0  0  0  0  0
   17.5925    2.6911   -0.3110 H   0  0  0  0  0  0  0  0  0  0  0  0
   20.0036    2.6837   -0.2910 H   0  0  0  0  0  0  0  0  0  0  0  0
   22.1488    2.7087   -0.2681 H   0  0  0  0  0  0  0  0  0  0  0  0
   24.6731    2.3115   -0.1960 H   0  0  0  0  0  0  0  0  0  0  0  0
   27.9567   -2.8958    0.2988 H   0  0  0  0  0  0  0  0  0  0  0  0
   25.4318   -2.5020    0.2061 H   0  0  0  0  0  0  0  0  0  0  0  0
   30.1027   -2.8683    0.3363 H   0  0  0  0  0  0  0  0  0  0  0  0
   32.5149   -2.8683    0.4015 H   0  0  0  0  0  0  0  0  0  0  0  0
   34.6537   -2.9155    0.4470 H   0  0  0  0  0  0  0  0  0  0  0  0
   37.2044   -2.5186    0.4920 H   0  0  0  0  0  0  0  0  0  0  0  0
   37.8951    0.0112    0.3612 H   0  0  0  0  0  0  0  0  0  0  0  0
  1  2  1  0
  2  3  2  0
  3  4  1  0
  4  5  1  0
  5  6  1  0
  6  7  2  0
  7  8  1  0
  8  9  2  0
  9 10  1  0
 10 11  2  0
 11 12  1  0
 12 13  2  0
 13 14  1  0
  9 15  1  0
 15 16  2  0
 16 17  1  0
 17 18  1  0
 18 19  2  0
 20 21  1  0
 21 22  2  0
 22 23  1  0
 23 24  1  0
 24 25  1  0
 25 26  2  0
 26 27  1  0
 27 28  2  0
 28 29  1  0
 29 30  2  0
 30 31  1  0
 31 32  2  0
 32 33  1  0
 28 34  1  0
 34 35  2  0
 35 36  1  0
 36 37  1  0
 37 38  2  0
 39 40  1  0
 40 41  2  0
 41 42  1  0
 42 43  1  0
 43 44  1  0
 44 45  2  0
 45 46  1  0
 46 47  2  0
 47 48  1  0
 48 49  2  0
 49 50  1  0
 50 51  2  0
 51 52  1  0
 47 53  1  0
 53 54  2  0
 54 55  1  0
 55 56  1  0
 56 57  2  0
 58 59  1  0
 59 60  2  0
 60 61  1  0
 61 62  1  0
 62 63  1  0
 63 64  2  0
 64 65  1  0
 65 66  2  0
 66 67  1  0
 67 68  2  0
 68 69  1  0
 69 70  2  0
 70 71  1  0
 66 72  1  0
 72 73  2  0
 73 74  1  0
 74 75  1  0
 75 76  2  0
 77 78  1  0
 78 79  2  0
 79 80  1  0
 80 81  1  0
 81 82  1  0
 82 83  2  0
 83 84  1  0
 84 85  2  0
 85 86  1  0
 86 87  2  0
 87 88  1  0
 88 89  2  0
 89 90  1  0
 85 91  1  0
 91 92  2  0
 92 93  1  0
 93 94  1  0
 94 95  2  0
 96 97  1  0
 97 98  2  0
 98 99  1  0
 99100  1  0
100101  1  0
101102  2  0
102103  1  0
103104  2  0
104105  1  0
105106  2  0
106107  1  0
107108  2  0
108109  1  0
104110  1  0
110111  2  0
111112  1  0
112113  1  0
113114  2  0
  5  1  2  0
 19  6  1  0
 24 20  2  0
 38 25  1  0
 43 39  2  0
 57 44  1  0
 62 58  2  0
 76 63  1  0
 81 77  2  0
 95 82  1  0
100 96  2  0
114101  1  0
 14 10  1  0
 19 15  1  0
 33 29  1  0
 38 34  1  0
 52 48  1  0
 57 53  1  0
 71 67  1  0
 76 72  1  0
 90 86  1  0
 95 91  1  0
109105  1  0
114110  1  0
 13 22  1  0
 32 41  1  0
 51 60  1  0
 70 79  1  0
 89 98  1  0
  1115  1  0
  2116  1  0
  3117  1  0
  7118  1  0
  8119  1  0
 11120  1  0
 12121  1  0
 20122  1  0
 21123  1  0
 26124  1  0
 27125  1  0
 30126  1  0
 31127  1  0
 39128  1  0
 40129  1  0
 45130  1  0
 46131  1  0
 49132  1  0
 50133  1  0
 58134  1  0
 59135  1  0
 64136  1  0
 65137  1  0
 68138  1  0
 69139  1  0
 77140  1  0
 78141  1  0
 83142  1  0
 84143  1  0
 87144  1  0
 88145  1  0
 96146  1  0
 97147  1  0
102148  1  0
103149  1  0
106150  1  0
107151  1  0
108152  1  0
M  END
>  <_StereochemDone>  (9) 
1

>  <File>  (9) 
A-DAD_Hexamer/A-SeSSe6uv.gjf

>  <System_Code>  (9) 
SeSSe

>  <Unit_Type>  (9) 
Hexamer

>  <Family>  (9) 
benzochalcogenadiazole

>  <InChIKey>  (9) 
VITUCWRODJBYIJ-UHFFFAOYSA-N

$$$$
A-SeSeSe6uv
     RDKit          3D

152175  0  0  0  0  0  0  0  0999 V2000
  -34.7675   -1.6796   -0.1923 C   0  0  0  0  0  0  0  0  0  0  0  0
  -36.1591   -1.3170   -0.1983 C   0  0  0  0  0  0  0  0  0  0  0  0
  -36.4193    0.0353   -0.1828 C   0  0  0  0  0  0  0  0  0  0  0  0
  -34.8199    1.0666   -0.1573 Se  0  0  0  0  0  2  0  0  0  0  0  0
  -33.8593   -0.6296   -0.1719 C   0  0  0  0  0  0  0  0  0  0  0  0
  -32.3999   -0.6755   -0.1613 C   0  0  0  0  0  0  0  0  0  0  0  0
  -31.6185    0.4805   -0.1478 C   0  0  0  0  0  0  0  0  0  0  0  0
  -30.1966    0.4843   -0.1352 C   0  0  0  0  0  0  0  0  0  0  0  0
  -29.4094   -0.6694   -0.1346 C   0  0  0  0  0  0  0  0  0  0  0  0
  -27.9555   -0.6166   -0.1209 C   0  0  0  0  0  0  0  0  0  0  0  0
  -27.0393   -1.6645   -0.1150 C   0  0  0  0  0  0  0  0  0  0  0  0
  -25.6603   -1.3047   -0.1004 C   0  0  0  0  0  0  0  0  0  0  0  0
  -25.3676    0.0560   -0.0939 C   0  0  0  0  0  0  0  0  0  0  0  0
  -27.0077    1.0824   -0.1068 Se  0  0  0  0  0  2  0  0  0  0  0  0
  -30.1541   -1.9278   -0.1491 C   0  0  0  0  0  0  0  0  0  0  0  0
  -29.5658   -3.1356   -0.1509 N   0  0  0  0  0  0  0  0  0  0  0  0
  -30.8979   -4.4481   -0.1721 Se  0  0  0  0  0  2  0  0  0  0  0  0
  -32.2347   -3.1411   -0.1759 N   0  0  0  0  0  0  0  0  0  0  0  0
  -31.6506   -1.9300   -0.1629 C   0  0  0  0  0  0  0  0  0  0  0  0
  -22.4042    2.4117   -0.0601 C   0  0  0  0  0  0  0  0  0  0  0  0
  -23.7836    2.0542   -0.0794 C   0  0  0  0  0  0  0  0  0  0  0  0
  -24.0786    0.6938   -0.0782 C   0  0  0  0  0  0  0  0  0  0  0  0
  -22.4408   -0.3356   -0.0497 Se  0  0  0  0  0  2  0  0  0  0  0  0
  -21.4894    1.3618   -0.0419 C   0  0  0  0  0  0  0  0  0  0  0  0
  -20.0370    1.4106   -0.0183 C   0  0  0  0  0  0  0  0  0  0  0  0
  -19.2536    0.2523    0.0008 C   0  0  0  0  0  0  0  0  0  0  0  0
  -17.8346    0.2500    0.0254 C   0  0  0  0  0  0  0  0  0  0  0  0
  -17.0468    1.4055    0.0339 C   0  0  0  0  0  0  0  0  0  0  0  0
  -15.5947    1.3511    0.0593 C   0  0  0  0  0  0  0  0  0  0  0  0
  -14.6748    2.3970    0.0665 C   0  0  0  0  0  0  0  0  0  0  0  0
  -13.2973    2.0332    0.0911 C   0  0  0  0  0  0  0  0  0  0  0  0
  -13.0089    0.6712    0.1060 C   0  0  0  0  0  0  0  0  0  0  0  0
  -14.6517   -0.3504    0.0877 Se  0  0  0  0  0  2  0  0  0  0  0  0
  -17.7914    2.6636    0.0147 C   0  0  0  0  0  0  0  0  0  0  0  0
  -17.2031    3.8717    0.0192 N   0  0  0  0  0  0  0  0  0  0  0  0
  -18.5350    5.1843   -0.0116 Se  0  0  0  0  0  2  0  0  0  0  0  0
  -19.8715    3.8762   -0.0282 N   0  0  0  0  0  0  0  0  0  0  0  0
  -19.2877    2.6660   -0.0118 C   0  0  0  0  0  0  0  0  0  0  0  0
  -10.0677   -1.7084    0.1705 C   0  0  0  0  0  0  0  0  0  0  0  0
  -11.4426   -1.3371    0.1522 C   0  0  0  0  0  0  0  0  0  0  0  0
  -11.7241    0.0263    0.1298 C   0  0  0  0  0  0  0  0  0  0  0  0
  -10.0757    1.0392    0.1312 Se  0  0  0  0  0  2  0  0  0  0  0  0
   -9.1416   -0.6679    0.1645 C   0  0  0  0  0  0  0  0  0  0  0  0
   -7.6900   -0.7354    0.1770 C   0  0  0  0  0  0  0  0  0  0  0  0
   -6.8893    0.4115    0.1682 C   0  0  0  0  0  0  0  0  0  0  0  0
   -5.4700    0.3931    0.1755 C   0  0  0  0  0  0  0  0  0  0  0  0
   -4.6996   -0.7742    0.1923 C   0  0  0  0  0  0  0  0  0  0  0  0
   -3.2465   -0.7444    0.1939 C   0  0  0  0  0  0  0  0  0  0  0  0
   -2.3475   -1.8082    0.2091 C   0  0  0  0  0  0  0  0  0  0  0  0
   -0.9635   -1.4723    0.2031 C   0  0  0  0  0  0  0  0  0  0  0  0
   -0.6469   -0.1165    0.1828 C   0  0  0  0  0  0  0  0  0  0  0  0
   -2.2688    0.9383    0.1687 Se  0  0  0  0  0  2  0  0  0  0  0  0
   -5.4632   -2.0210    0.2055 C   0  0  0  0  0  0  0  0  0  0  0  0
   -4.8933   -3.2379    0.2243 N   0  0  0  0  0  0  0  0  0  0  0  0
   -6.2441   -4.5310    0.2355 Se  0  0  0  0  0  2  0  0  0  0  0  0
   -7.5609   -3.2033    0.2102 N   0  0  0  0  0  0  0  0  0  0  0  0
   -6.9593   -2.0019    0.1977 C   0  0  0  0  0  0  0  0  0  0  0  0
    2.3658    2.1754    0.1458 C   0  0  0  0  0  0  0  0  0  0  0  0
    0.9789    1.8485    0.1608 C   0  0  0  0  0  0  0  0  0  0  0  0
    0.6544    0.4945    0.1697 C   0  0  0  0  0  0  0  0  0  0  0  0
    2.2693   -0.5704    0.1587 Se  0  0  0  0  0  2  0  0  0  0  0  0
    3.2575    1.1052    0.1412 C   0  0  0  0  0  0  0  0  0  0  0  0
    4.7106    1.1200    0.1245 C   0  0  0  0  0  0  0  0  0  0  0  0
    5.4663   -0.0569    0.1198 C   0  0  0  0  0  0  0  0  0  0  0  0
    6.8847   -0.0934    0.1013 C   0  0  0  0  0  0  0  0  0  0  0  0
    7.6999    1.0428    0.0853 C   0  0  0  0  0  0  0  0  0  0  0  0
    9.1502    0.9534    0.0657 C   0  0  0  0  0  0  0  0  0  0  0  0
   10.0942    1.9775    0.0498 C   0  0  0  0  0  0  0  0  0  0  0  0
   11.4628    1.5816    0.0333 C   0  0  0  0  0  0  0  0  0  0  0  0
   11.7197    0.2131    0.0347 C   0  0  0  0  0  0  0  0  0  0  0  0
   10.0534   -0.7699    0.0595 Se  0  0  0  0  0  2  0  0  0  0  0  0
    6.9857    2.3189    0.0897 C   0  0  0  0  0  0  0  0  0  0  0  0
    7.6026    3.5124    0.0774 N   0  0  0  0  0  0  0  0  0  0  0  0
    6.3022    4.8567    0.0895 Se  0  0  0  0  0  2  0  0  0  0  0  0
    4.9349    3.5808    0.1130 N   0  0  0  0  0  0  0  0  0  0  0  0
    5.4898    2.3569    0.1098 C   0  0  0  0  0  0  0  0  0  0  0  0
   14.6097   -2.2301    0.0084 C   0  0  0  0  0  0  0  0  0  0  0  0
   13.2427   -1.8300    0.0231 C   0  0  0  0  0  0  0  0  0  0  0  0
   12.9896   -0.4609    0.0210 C   0  0  0  0  0  0  0  0  0  0  0  0
   14.6590    0.5172   -0.0029 Se  0  0  0  0  0  2  0  0  0  0  0  0
   15.5570   -1.2092   -0.0066 C   0  0  0  0  0  0  0  0  0  0  0  0
   17.0071   -1.3061   -0.0224 C   0  0  0  0  0  0  0  0  0  0  0  0
   17.8295   -0.1749   -0.0360 C   0  0  0  0  0  0  0  0  0  0  0  0
   19.2482   -0.2205   -0.0493 C   0  0  0  0  0  0  0  0  0  0  0  0
   19.9962   -1.4022   -0.0505 C   0  0  0  0  0  0  0  0  0  0  0  0
   21.4496   -1.3991   -0.0614 C   0  0  0  0  0  0  0  0  0  0  0  0
   22.3301   -2.4783   -0.0623 C   0  0  0  0  0  0  0  0  0  0  0  0
   23.7202   -2.1659   -0.0715 C   0  0  0  0  0  0  0  0  0  0  0  0
   24.0593   -0.8159   -0.0788 C   0  0  0  0  0  0  0  0  0  0  0  0
   22.4559    0.2664   -0.0744 Se  0  0  0  0  0  2  0  0  0  0  0  0
   19.2088   -2.6342   -0.0387 C   0  0  0  0  0  0  0  0  0  0  0  0
   19.7556   -3.8616   -0.0396 N   0  0  0  0  0  0  0  0  0  0  0  0
   18.3806   -5.1288   -0.0219 Se  0  0  0  0  0  2  0  0  0  0  0  0
   17.0889   -3.7762   -0.0139 N   0  0  0  0  0  0  0  0  0  0  0  0
   17.7132   -2.5862   -0.0244 C   0  0  0  0  0  0  0  0  0  0  0  0
   27.1019    1.4364   -0.1005 C   0  0  0  0  0  0  0  0  0  0  0  0
   25.7106    1.1262   -0.0938 C   0  0  0  0  0  0  0  0  0  0  0  0
   25.3698   -0.2231   -0.0871 C   0  0  0  0  0  0  0  0  0  0  0  0
   26.9719   -1.3075   -0.0898 Se  0  0  0  0  0  2  0  0  0  0  0  0
   27.9800    0.3563   -0.0998 C   0  0  0  0  0  0  0  0  0  0  0  0
   29.4349    0.3558   -0.1049 C   0  0  0  0  0  0  0  0  0  0  0  0
   30.1792   -0.8261   -0.1035 C   0  0  0  0  0  0  0  0  0  0  0  0
   31.6004   -0.8742   -0.1078 C   0  0  0  0  0  0  0  0  0  0  0  0
   32.4238    0.2523   -0.1137 C   0  0  0  0  0  0  0  0  0  0  0  0
   33.8806    0.1525   -0.1179 C   0  0  0  0  0  0  0  0  0  0  0  0
   34.8266    1.1687   -0.1239 C   0  0  0  0  0  0  0  0  0  0  0  0
   36.2041    0.7555   -0.1263 C   0  0  0  0  0  0  0  0  0  0  0  0
   36.4148   -0.6055   -0.1224 C   0  0  0  0  0  0  0  0  0  0  0  0
   34.7784   -1.5778   -0.1148 Se  0  0  0  0  0  2  0  0  0  0  0  0
   31.7211    1.5334   -0.1163 C   0  0  0  0  0  0  0  0  0  0  0  0
   32.3490    2.7223   -0.1224 N   0  0  0  0  0  0  0  0  0  0  0  0
   31.0606    4.0774   -0.1230 Se  0  0  0  0  0  2  0  0  0  0  0  0
   29.6816    2.8144   -0.1142 N   0  0  0  0  0  0  0  0  0  0  0  0
   30.2254    1.5859   -0.1117 C   0  0  0  0  0  0  0  0  0  0  0  0
  -34.4244   -2.7065   -0.2026 H   0  0  0  0  0  0  0  0  0  0  0  0
  -36.9507   -2.0600   -0.2135 H   0  0  0  0  0  0  0  0  0  0  0  0
  -37.3846    0.5242   -0.1835 H   0  0  0  0  0  0  0  0  0  0  0  0
  -32.1109    1.4502   -0.1465 H   0  0  0  0  0  0  0  0  0  0  0  0
  -29.7093    1.4565   -0.1250 H   0  0  0  0  0  0  0  0  0  0  0  0
  -27.3813   -2.6914   -0.1221 H   0  0  0  0  0  0  0  0  0  0  0  0
  -24.8769   -2.0581   -0.0948 H   0  0  0  0  0  0  0  0  0  0  0  0
  -22.0605    3.4382   -0.0594 H   0  0  0  0  0  0  0  0  0  0  0  0
  -24.5657    2.8086   -0.0945 H   0  0  0  0  0  0  0  0  0  0  0  0
  -19.7454   -0.7176   -0.0027 H   0  0  0  0  0  0  0  0  0  0  0  0
  -17.3464   -0.7217    0.0384 H   0  0  0  0  0  0  0  0  0  0  0  0
  -15.0139    3.4249    0.0535 H   0  0  0  0  0  0  0  0  0  0  0  0
  -12.5114    2.7837    0.0982 H   0  0  0  0  0  0  0  0  0  0  0  0
   -9.7345   -2.7380    0.1886 H   0  0  0  0  0  0  0  0  0  0  0  0
  -12.2324   -2.0835    0.1556 H   0  0  0  0  0  0  0  0  0  0  0  0
   -7.3672    1.3882    0.1537 H   0  0  0  0  0  0  0  0  0  0  0  0
   -4.9668    1.3571    0.1658 H   0  0  0  0  0  0  0  0  0  0  0  0
   -2.7070   -2.8290    0.2242 H   0  0  0  0  0  0  0  0  0  0  0  0
   -0.1931   -2.2387    0.2142 H   0  0  0  0  0  0  0  0  0  0  0  0
    2.7320    3.1940    0.1378 H   0  0  0  0  0  0  0  0  0  0  0  0
    0.2131    2.6195    0.1655 H   0  0  0  0  0  0  0  0  0  0  0  0
    4.9515   -1.0147    0.1305 H   0  0  0  0  0  0  0  0  0  0  0  0
    7.3497   -1.0764    0.0997 H   0  0  0  0  0  0  0  0  0  0  0  0
    9.7791    3.0131    0.0504 H   0  0  0  0  0  0  0  0  0  0  0  0
   12.2659    2.3137    0.0203 H   0  0  0  0  0  0  0  0  0  0  0  0
   14.9217   -3.2666    0.0088 H   0  0  0  0  0  0  0  0  0  0  0  0
   12.4375   -2.5599    0.0357 H   0  0  0  0  0  0  0  0  0  0  0  0
   17.3705    0.8110   -0.0360 H   0  0  0  0  0  0  0  0  0  0  0  0
   19.7693    0.7340   -0.0582 H   0  0  0  0  0  0  0  0  0  0  0  0
   21.9534   -3.4929   -0.0557 H   0  0  0  0  0  0  0  0  0  0  0  0
   24.4775   -2.9453   -0.0723 H   0  0  0  0  0  0  0  0  0  0  0  0
   27.4802    2.4505   -0.1058 H   0  0  0  0  0  0  0  0  0  0  0  0
   24.9544    1.9069   -0.0936 H   0  0  0  0  0  0  0  0  0  0  0  0
   29.6568   -1.7798   -0.0987 H   0  0  0  0  0  0  0  0  0  0  0  0
   32.0571   -1.8611   -0.1059 H   0  0  0  0  0  0  0  0  0  0  0  0
   34.5209    2.2072   -0.1265 H   0  0  0  0  0  0  0  0  0  0  0  0
   37.0221    1.4694   -0.1309 H   0  0  0  0  0  0  0  0  0  0  0  0
   37.3614   -1.1300   -0.1236 H   0  0  0  0  0  0  0  0  0  0  0  0
  1  2  1  0
  2  3  2  0
  3  4  1  0
  4  5  1  0
  5  6  1  0
  6  7  2  0
  7  8  1  0
  8  9  2  0
  9 10  1  0
 10 11  2  0
 11 12  1  0
 12 13  2  0
 13 14  1  0
  9 15  1  0
 15 16  2  0
 16 17  1  0
 17 18  1  0
 18 19  2  0
 20 21  1  0
 21 22  2  0
 22 23  1  0
 23 24  1  0
 24 25  1  0
 25 26  2  0
 26 27  1  0
 27 28  2  0
 28 29  1  0
 29 30  2  0
 30 31  1  0
 31 32  2  0
 32 33  1  0
 28 34  1  0
 34 35  2  0
 35 36  1  0
 36 37  1  0
 37 38  2  0
 39 40  1  0
 40 41  2  0
 41 42  1  0
 42 43  1  0
 43 44  1  0
 44 45  2  0
 45 46  1  0
 46 47  2  0
 47 48  1  0
 48 49  2  0
 49 50  1  0
 50 51  2  0
 51 52  1  0
 47 53  1  0
 53 54  2  0
 54 55  1  0
 55 56  1  0
 56 57  2  0
 58 59  1  0
 59 60  2  0
 60 61  1  0
 61 62  1  0
 62 63  1  0
 63 64  2  0
 64 65  1  0
 65 66  2  0
 66 67  1  0
 67 68  2  0
 68 69  1  0
 69 70  2  0
 70 71  1  0
 66 72  1  0
 72 73  2  0
 73 74  1  0
 74 75  1  0
 75 76  2  0
 77 78  1  0
 78 79  2  0
 79 80  1  0
 80 81  1  0
 81 82  1  0
 82 83  2  0
 83 84  1  0
 84 85  2  0
 85 86  1  0
 86 87  2  0
 87 88  1  0
 88 89  2  0
 89 90  1  0
 85 91  1  0
 91 92  2  0
 92 93  1  0
 93 94  1  0
 94 95  2  0
 96 97  1  0
 97 98  2  0
 98 99  1  0
 99100  1  0
100101  1  0
101102  2  0
102103  1  0
103104  2  0
104105  1  0
105106  2  0
106107  1  0
107108  2  0
108109  1  0
104110  1  0
110111  2  0
111112  1  0
112113  1  0
113114  2  0
  5  1  2  0
 19  6  1  0
 24 20  2  0
 38 25  1  0
 43 39  2  0
 57 44  1  0
 62 58  2  0
 76 63  1  0
 81 77  2  0
 95 82  1  0
100 96  2  0
114101  1  0
 14 10  1  0
 19 15  1  0
 33 29  1  0
 38 34  1  0
 52 48  1  0
 57 53  1  0
 71 67  1  0
 76 72  1  0
 90 86  1  0
 95 91  1  0
109105  1  0
114110  1  0
 13 22  1  0
 32 41  1  0
 51 60  1  0
 70 79  1  0
 89 98  1  0
  1115  1  0
  2116  1  0
  3117  1  0
  7118  1  0
  8119  1  0
 11120  1  0
 12121  1  0
 20122  1  0
 21123  1  0
 26124  1  0
 27125  1  0
 30126  1  0
 31127  1  0
 39128  1  0
 40129  1  0
 45130  1  0
 46131  1  0
 49132  1  0
 50133  1  0
 58134  1  0
 59135  1  0
 64136  1  0
 65137  1  0
 68138  1  0
 69139  1  0
 77140  1  0
 78141  1  0
 83142  1  0
 84143  1  0
 87144  1  0
 88145  1  0
 96146  1  0
 97147  1  0
102148  1  0
103149  1  0
106150  1  0
107151  1  0
108152  1  0
M  END
>  <_StereochemDone>  (10) 
1

>  <File>  (10) 
A-DAD_Hexamer/A-SeSeSe6uv.gjf

>  <System_Code>  (10) 
SeSeSe

>  <Unit_Type>  (10) 
Hexamer

>  <Family>  (10) 
benzochalcogenadiazole

>  <InChIKey>  (10) 
YYEAJUSEMZQYRY-UHFFFAOYSA-N

$$$$
A-SeTeSe6uv
     RDKit          3D

152175  0  0  0  0  0  0  0  0999 V2000
  -34.9623    2.1119    0.9845 C   0  0  0  0  0  0  0  0  0  0  0  0
  -36.3829    1.9209    1.0409 C   0  0  0  0  0  0  0  0  0  0  0  0
  -36.7970    0.6126    0.9011 C   0  0  0  0  0  0  0  0  0  0  0  0
  -35.3349   -0.5888    0.6697 Se  0  0  0  0  0  2  0  0  0  0  0  0
  -34.1878    0.9702    0.7985 C   0  0  0  0  0  0  0  0  0  0  0  0
  -32.7308    0.9179    0.7072 C   0  0  0  0  0  0  0  0  0  0  0  0
  -31.9348    2.0633    0.8002 C   0  0  0  0  0  0  0  0  0  0  0  0
  -30.5146    2.0529    0.7167 C   0  0  0  0  0  0  0  0  0  0  0  0
  -29.7558    0.8923    0.5315 C   0  0  0  0  0  0  0  0  0  0  0  0
  -28.3042    0.9083    0.4512 C   0  0  0  0  0  0  0  0  0  0  0  0
  -27.4829    2.0333    0.5474 C   0  0  0  0  0  0  0  0  0  0  0  0
  -26.0830    1.8186    0.4414 C   0  0  0  0  0  0  0  0  0  0  0  0
  -25.6777    0.4964    0.2505 C   0  0  0  0  0  0  0  0  0  0  0  0
  -27.2247   -0.6769    0.1895 Se  0  0  0  0  0  2  0  0  0  0  0  0
  -30.5185   -0.3461    0.4243 C   0  0  0  0  0  0  0  0  0  0  0  0
  -29.9107   -1.5271    0.2451 N   0  0  0  0  0  0  0  0  0  0  0  0
  -31.3048   -2.9920    0.1500 Te  0  0  0  0  0  2  0  0  0  0  0  0
  -32.6537   -1.5066    0.4084 N   0  0  0  0  0  0  0  0  0  0  0  0
  -32.0109   -0.3334    0.5131 C   0  0  0  0  0  0  0  0  0  0  0  0
  -22.5276   -1.5332   -0.1747 C   0  0  0  0  0  0  0  0  0  0  0  0
  -23.9277   -1.3187   -0.0747 C   0  0  0  0  0  0  0  0  0  0  0  0
  -24.3347    0.0031    0.1142 C   0  0  0  0  0  0  0  0  0  0  0  0
  -22.7891    1.1783    0.1782 Se  0  0  0  0  0  2  0  0  0  0  0  0
  -21.7068   -0.4067   -0.0752 C   0  0  0  0  0  0  0  0  0  0  0  0
  -20.2563   -0.3889   -0.1420 C   0  0  0  0  0  0  0  0  0  0  0  0
  -19.4928   -1.5524   -0.3121 C   0  0  0  0  0  0  0  0  0  0  0  0
  -18.0753   -1.5646   -0.3764 C   0  0  0  0  0  0  0  0  0  0  0  0
  -17.2797   -0.4144   -0.2774 C   0  0  0  0  0  0  0  0  0  0  0  0
  -15.8298   -0.4576   -0.3384 C   0  0  0  0  0  0  0  0  0  0  0  0
  -15.0396   -1.6007   -0.4872 C   0  0  0  0  0  0  0  0  0  0  0  0
  -13.6333   -1.4101   -0.5173 C   0  0  0  0  0  0  0  0  0  0  0  0
  -13.1892   -0.0917   -0.3962 C   0  0  0  0  0  0  0  0  0  0  0  0
  -14.7033    1.1119   -0.2132 Se  0  0  0  0  0  2  0  0  0  0  0  0
  -18.0047    0.8381   -0.1040 C   0  0  0  0  0  0  0  0  0  0  0  0
  -17.3624    2.0106   -0.0006 N   0  0  0  0  0  0  0  0  0  0  0  0
  -18.7147    3.4998    0.2309 Te  0  0  0  0  0  2  0  0  0  0  0  0
  -20.1072    2.0336    0.1292 N   0  0  0  0  0  0  0  0  0  0  0  0
  -19.4973    0.8506   -0.0342 C   0  0  0  0  0  0  0  0  0  0  0  0
   -9.9840    1.8929   -0.3429 C   0  0  0  0  0  0  0  0  0  0  0  0
  -11.3906    1.7029   -0.3397 C   0  0  0  0  0  0  0  0  0  0  0  0
  -11.8321    0.3791   -0.3912 C   0  0  0  0  0  0  0  0  0  0  0  0
  -10.3141   -0.8323   -0.4457 Se  0  0  0  0  0  2  0  0  0  0  0  0
   -9.1906    0.7436   -0.3946 C   0  0  0  0  0  0  0  0  0  0  0  0
   -7.7397    0.6990   -0.4080 C   0  0  0  0  0  0  0  0  0  0  0  0
   -6.9482    1.8563   -0.3878 C   0  0  0  0  0  0  0  0  0  0  0  0
   -5.5296    1.8430   -0.3922 C   0  0  0  0  0  0  0  0  0  0  0  0
   -4.7603    0.6708   -0.4174 C   0  0  0  0  0  0  0  0  0  0  0  0
   -3.3087    0.6874   -0.4163 C   0  0  0  0  0  0  0  0  0  0  0  0
   -2.4927    1.8221   -0.4091 C   0  0  0  0  0  0  0  0  0  0  0  0
   -1.0902    1.6045   -0.3980 C   0  0  0  0  0  0  0  0  0  0  0  0
   -0.6751    0.2712   -0.3935 C   0  0  0  0  0  0  0  0  0  0  0  0
   -2.2168   -0.9111   -0.4155 Se  0  0  0  0  0  2  0  0  0  0  0  0
   -5.5149   -0.5758   -0.4423 C   0  0  0  0  0  0  0  0  0  0  0  0
   -4.8992   -1.7667   -0.4681 N   0  0  0  0  0  0  0  0  0  0  0  0
   -6.2873   -3.2406   -0.4985 Te  0  0  0  0  0  2  0  0  0  0  0  0
   -7.6475   -1.7408   -0.4649 N   0  0  0  0  0  0  0  0  0  0  0  0
   -7.0092   -0.5618   -0.4394 C   0  0  0  0  0  0  0  0  0  0  0  0
    2.4885   -1.7776   -0.3049 C   0  0  0  0  0  0  0  0  0  0  0  0
    1.0862   -1.5594   -0.3176 C   0  0  0  0  0  0  0  0  0  0  0  0
    0.6719   -0.2270   -0.3754 C   0  0  0  0  0  0  0  0  0  0  0  0
    2.2146    0.9529   -0.4316 Se  0  0  0  0  0  2  0  0  0  0  0  0
    3.3054   -0.6445   -0.3527 C   0  0  0  0  0  0  0  0  0  0  0  0
    4.7569   -0.6288   -0.3414 C   0  0  0  0  0  0  0  0  0  0  0  0
    5.5247   -1.7995   -0.2624 C   0  0  0  0  0  0  0  0  0  0  0  0
    6.9431   -1.8137   -0.2459 C   0  0  0  0  0  0  0  0  0  0  0  0
    7.7361   -0.6588   -0.3065 C   0  0  0  0  0  0  0  0  0  0  0  0
    9.1868   -0.7043   -0.2828 C   0  0  0  0  0  0  0  0  0  0  0  0
    9.9783   -1.8526   -0.1916 C   0  0  0  0  0  0  0  0  0  0  0  0
   11.3849   -1.6641   -0.1847 C   0  0  0  0  0  0  0  0  0  0  0  0
   11.8287   -0.3429   -0.2713 C   0  0  0  0  0  0  0  0  0  0  0  0
   10.3127    0.8679   -0.3752 Se  0  0  0  0  0  2  0  0  0  0  0  0
    7.0073    0.6003   -0.3935 C   0  0  0  0  0  0  0  0  0  0  0  0
    7.6470    1.7769   -0.4603 N   0  0  0  0  0  0  0  0  0  0  0  0
    6.2889    3.2751   -0.5676 Te  0  0  0  0  0  2  0  0  0  0  0  0
    4.8989    1.8047   -0.4894 N   0  0  0  0  0  0  0  0  0  0  0  0
    5.5130    0.6153   -0.4100 C   0  0  0  0  0  0  0  0  0  0  0  0
   15.0409    1.6293   -0.3730 C   0  0  0  0  0  0  0  0  0  0  0  0
   13.6339    1.4431   -0.3937 C   0  0  0  0  0  0  0  0  0  0  0  0
   13.1868    0.1248   -0.2821 C   0  0  0  0  0  0  0  0  0  0  0  0
   14.6989   -1.0853   -0.1280 Se  0  0  0  0  0  2  0  0  0  0  0  0
   15.8289    0.4823   -0.2433 C   0  0  0  0  0  0  0  0  0  0  0  0
   17.2791    0.4340   -0.1936 C   0  0  0  0  0  0  0  0  0  0  0  0
   18.0774    1.5837   -0.2757 C   0  0  0  0  0  0  0  0  0  0  0  0
   19.4955    1.5657   -0.2247 C   0  0  0  0  0  0  0  0  0  0  0  0
   20.2566    0.3966   -0.0858 C   0  0  0  0  0  0  0  0  0  0  0  0
   21.7077    0.4081   -0.0328 C   0  0  0  0  0  0  0  0  0  0  0  0
   22.5318    1.5338   -0.1115 C   0  0  0  0  0  0  0  0  0  0  0  0
   23.9320    1.3115   -0.0337 C   0  0  0  0  0  0  0  0  0  0  0  0
   24.3360   -0.0165    0.1142 C   0  0  0  0  0  0  0  0  0  0  0  0
   22.7865   -1.1870    0.1668 Se  0  0  0  0  0  2  0  0  0  0  0  0
   19.4945   -0.8424    0.0041 C   0  0  0  0  0  0  0  0  0  0  0  0
   20.1020   -2.0304    0.1378 N   0  0  0  0  0  0  0  0  0  0  0  0
   18.7057   -3.4939    0.2243 Te  0  0  0  0  0  2  0  0  0  0  0  0
   17.3562   -1.9961    0.0356 N   0  0  0  0  0  0  0  0  0  0  0  0
   18.0014   -0.8238   -0.0510 C   0  0  0  0  0  0  0  0  0  0  0  0
   27.4804   -2.0721    0.4411 C   0  0  0  0  0  0  0  0  0  0  0  0
   26.0806   -1.8486    0.3548 C   0  0  0  0  0  0  0  0  0  0  0  0
   25.6783   -0.5188    0.2206 C   0  0  0  0  0  0  0  0  0  0  0  0
   27.2287    0.6515    0.1968 Se  0  0  0  0  0  2  0  0  0  0  0  0
   28.3047   -0.9464    0.3846 C   0  0  0  0  0  0  0  0  0  0  0  0
   29.7569   -0.9382    0.4538 C   0  0  0  0  0  0  0  0  0  0  0  0
   30.5132   -2.1081    0.5820 C   0  0  0  0  0  0  0  0  0  0  0  0
   31.9339   -2.1263    0.6546 C   0  0  0  0  0  0  0  0  0  0  0  0
   32.7329   -0.9803    0.6070 C   0  0  0  0  0  0  0  0  0  0  0  0
   34.1904   -1.0408    0.6855 C   0  0  0  0  0  0  0  0  0  0  0  0
   34.9625   -2.1918    0.8136 C   0  0  0  0  0  0  0  0  0  0  0  0
   36.3840   -2.0081    0.8693 C   0  0  0  0  0  0  0  0  0  0  0  0
   36.8013   -0.6955    0.7873 C   0  0  0  0  0  0  0  0  0  0  0  0
   35.3416    0.5192    0.6213 Se  0  0  0  0  0  2  0  0  0  0  0  0
   32.0158    0.2805    0.4737 C   0  0  0  0  0  0  0  0  0  0  0  0
   32.6616    1.4554    0.4166 N   0  0  0  0  0  0  0  0  0  0  0  0
   31.3157    2.9545    0.2324 Te  0  0  0  0  0  2  0  0  0  0  0  0
   29.9176    1.4909    0.2722 N   0  0  0  0  0  0  0  0  0  0  0  0
   30.5229    0.3014    0.3954 C   0  0  0  0  0  0  0  0  0  0  0  0
  -34.5253    3.1006    1.0832 H   0  0  0  0  0  0  0  0  0  0  0  0
  -37.0735    2.7472    1.1827 H   0  0  0  0  0  0  0  0  0  0  0  0
  -37.8169    0.2487    0.9136 H   0  0  0  0  0  0  0  0  0  0  0  0
  -32.4124    3.0275    0.9450 H   0  0  0  0  0  0  0  0  0  0  0  0
  -30.0082    3.0094    0.8040 H   0  0  0  0  0  0  0  0  0  0  0  0
  -27.8861    3.0300    0.6973 H   0  0  0  0  0  0  0  0  0  0  0  0
  -25.3732    2.6389    0.5068 H   0  0  0  0  0  0  0  0  0  0  0  0
  -22.1231   -2.5295   -0.3214 H   0  0  0  0  0  0  0  0  0  0  0  0
  -24.6369   -2.1396   -0.1416 H   0  0  0  0  0  0  0  0  0  0  0  0
  -19.9995   -2.5086   -0.3997 H   0  0  0  0  0  0  0  0  0  0  0  0
  -17.5949   -2.5292   -0.5091 H   0  0  0  0  0  0  0  0  0  0  0  0
  -15.4722   -2.5922   -0.5760 H   0  0  0  0  0  0  0  0  0  0  0  0
  -12.9465   -2.2444   -0.6339 H   0  0  0  0  0  0  0  0  0  0  0  0
   -9.5535    2.8886   -0.3060 H   0  0  0  0  0  0  0  0  0  0  0  0
  -12.0799    2.5424   -0.3046 H   0  0  0  0  0  0  0  0  0  0  0  0
   -7.4332    2.8274   -0.3665 H   0  0  0  0  0  0  0  0  0  0  0  0
   -5.0262    2.8047   -0.3717 H   0  0  0  0  0  0  0  0  0  0  0  0
   -2.9035    2.8267   -0.4106 H   0  0  0  0  0  0  0  0  0  0  0  0
   -0.3844    2.4310   -0.3871 H   0  0  0  0  0  0  0  0  0  0  0  0
    2.8985   -2.7815   -0.2586 H   0  0  0  0  0  0  0  0  0  0  0  0
    0.3796   -2.3843   -0.2779 H   0  0  0  0  0  0  0  0  0  0  0  0
    5.0201   -2.7593   -0.2073 H   0  0  0  0  0  0  0  0  0  0  0  0
    7.4268   -2.7836   -0.1810 H   0  0  0  0  0  0  0  0  0  0  0  0
    9.5462   -2.8462   -0.1278 H   0  0  0  0  0  0  0  0  0  0  0  0
   12.0728   -2.5029   -0.1173 H   0  0  0  0  0  0  0  0  0  0  0  0
   15.4758    2.6205   -0.4544 H   0  0  0  0  0  0  0  0  0  0  0  0
   12.9486    2.2809   -0.4927 H   0  0  0  0  0  0  0  0  0  0  0  0
   17.5990    2.5523   -0.3839 H   0  0  0  0  0  0  0  0  0  0  0  0
   20.0046    2.5220   -0.2978 H   0  0  0  0  0  0  0  0  0  0  0  0
   22.1293    2.5351   -0.2267 H   0  0  0  0  0  0  0  0  0  0  0  0
   24.6439    2.1311   -0.0878 H   0  0  0  0  0  0  0  0  0  0  0  0
   27.8815   -3.0751    0.5470 H   0  0  0  0  0  0  0  0  0  0  0  0
   25.3684   -2.6688    0.3911 H   0  0  0  0  0  0  0  0  0  0  0  0
   30.0043   -3.0660    0.6304 H   0  0  0  0  0  0  0  0  0  0  0  0
   32.4094   -3.0974    0.7532 H   0  0  0  0  0  0  0  0  0  0  0  0
   34.5231   -3.1830    0.8697 H   0  0  0  0  0  0  0  0  0  0  0  0
   37.0729   -2.8418    0.9682 H   0  0  0  0  0  0  0  0  0  0  0  0
   37.8224   -0.3357    0.8098 H   0  0  0  0  0  0  0  0  0  0  0  0
  1  2  1  0
  2  3  2  0
  3  4  1  0
  4  5  1  0
  5  6  1  0
  6  7  2  0
  7  8  1  0
  8  9  2  0
  9 10  1  0
 10 11  2  0
 11 12  1  0
 12 13  2  0
 13 14  1  0
  9 15  1  0
 15 16  2  0
 16 17  1  0
 17 18  1  0
 18 19  2  0
 20 21  1  0
 21 22  2  0
 22 23  1  0
 23 24  1  0
 24 25  1  0
 25 26  2  0
 26 27  1  0
 27 28  2  0
 28 29  1  0
 29 30  2  0
 30 31  1  0
 31 32  2  0
 32 33  1  0
 28 34  1  0
 34 35  2  0
 35 36  1  0
 36 37  1  0
 37 38  2  0
 39 40  1  0
 40 41  2  0
 41 42  1  0
 42 43  1  0
 43 44  1  0
 44 45  2  0
 45 46  1  0
 46 47  2  0
 47 48  1  0
 48 49  2  0
 49 50  1  0
 50 51  2  0
 51 52  1  0
 47 53  1  0
 53 54  2  0
 54 55  1  0
 55 56  1  0
 56 57  2  0
 58 59  1  0
 59 60  2  0
 60 61  1  0
 61 62  1  0
 62 63  1  0
 63 64  2  0
 64 65  1  0
 65 66  2  0
 66 67  1  0
 67 68  2  0
 68 69  1  0
 69 70  2  0
 70 71  1  0
 66 72  1  0
 72 73  2  0
 73 74  1  0
 74 75  1  0
 75 76  2  0
 77 78  1  0
 78 79  2  0
 79 80  1  0
 80 81  1  0
 81 82  1  0
 82 83  2  0
 83 84  1  0
 84 85  2  0
 85 86  1  0
 86 87  2  0
 87 88  1  0
 88 89  2  0
 89 90  1  0
 85 91  1  0
 91 92  2  0
 92 93  1  0
 93 94  1  0
 94 95  2  0
 96 97  1  0
 97 98  2  0
 98 99  1  0
 99100  1  0
100101  1  0
101102  2  0
102103  1  0
103104  2  0
104105  1  0
105106  2  0
106107  1  0
107108  2  0
108109  1  0
104110  1  0
110111  2  0
111112  1  0
112113  1  0
113114  2  0
  5  1  2  0
 19  6  1  0
 24 20  2  0
 38 25  1  0
 43 39  2  0
 57 44  1  0
 62 58  2  0
 76 63  1  0
 81 77  2  0
 95 82  1  0
100 96  2  0
114101  1  0
 14 10  1  0
 19 15  1  0
 33 29  1  0
 38 34  1  0
 52 48  1  0
 57 53  1  0
 71 67  1  0
 76 72  1  0
 90 86  1  0
 95 91  1  0
109105  1  0
114110  1  0
 13 22  1  0
 32 41  1  0
 51 60  1  0
 70 79  1  0
 89 98  1  0
  1115  1  0
  2116  1  0
  3117  1  0
  7118  1  0
  8119  1  0
 11120  1  0
 12121  1  0
 20122  1  0
 21123  1  0
 26124  1  0
 27125  1  0
 30126  1  0
 31127  1  0
 39128  1  0
 40129  1  0
 45130  1  0
 46131  1  0
 49132  1  0
 50133  1  0
 58134  1  0
 59135  1  0
 64136  1  0
 65137  1  0
 68138  1  0
 69139  1  0
 77140  1  0
 78141  1  0
 83142  1  0
 84143  1  0
 87144  1  0
 88145  1  0
 96146  1  0
 97147  1  0
102148  1  0
103149  1  0
106150  1  0
107151  1  0
108152  1  0
M  END
>  <_StereochemDone>  (11) 
1

>  <File>  (11) 
A-DAD_Hexamer/A-SeTeSe6uv.gjf

>  <System_Code>  (11) 
SeTeSe

>  <Unit_Type>  (11) 
Hexamer

>  <Family>  (11) 
benzochalcogenadiazole

>  <InChIKey>  (11) 
CHNUPBIIPDOTFR-UHFFFAOYSA-N

$$$$
A-TeOTe6uv
     RDKit          3D

152175  0  0  0  0  0  0  0  0999 V2000
    0.8601  -35.8015   -0.4053 C   0  0  0  0  0  0  0  0  0  0  0  0
    0.6506  -37.2222   -0.3733 C   0  0  0  0  0  0  0  0  0  0  0  0
   -0.6296  -37.6683   -0.1059 C   0  0  0  0  0  0  0  0  0  0  0  0
   -1.9611  -36.1106    0.1892 Te  0  0  0  0  0  2  0  0  0  0  0  0
   -0.2240  -34.9608   -0.1683 C   0  0  0  0  0  0  0  0  0  0  0  0
   -0.1819  -33.5027   -0.1631 C   0  0  0  0  0  0  0  0  0  0  0  0
    0.9715  -32.7377   -0.3987 C   0  0  0  0  0  0  0  0  0  0  0  0
    1.0041  -31.3114   -0.3903 C   0  0  0  0  0  0  0  0  0  0  0  0
   -0.1168  -30.5008   -0.1449 C   0  0  0  0  0  0  0  0  0  0  0  0
   -0.1059  -29.0482   -0.1302 C   0  0  0  0  0  0  0  0  0  0  0  0
    1.0118  -28.2414   -0.3559 C   0  0  0  0  0  0  0  0  0  0  0  0
    0.8638  -26.8287   -0.3073 C   0  0  0  0  0  0  0  0  0  0  0  0
   -0.3974  -26.2893   -0.0346 C   0  0  0  0  0  0  0  0  0  0  0  0
   -1.7983  -27.8491    0.2411 Te  0  0  0  0  0  2  0  0  0  0  0  0
   -1.3223  -31.2532    0.1011 C   0  0  0  0  0  0  0  0  0  0  0  0
   -2.5500  -30.7774    0.3653 N   0  0  0  0  0  0  0  0  0  0  0  0
   -3.3690  -31.9339    0.5256 O   0  0  0  0  0  0  0  0  0  0  0  0
   -2.6049  -33.1257    0.3517 N   0  0  0  0  0  0  0  0  0  0  0  0
   -1.3547  -32.7042    0.0925 C   0  0  0  0  0  0  0  0  0  0  0  0
   -2.1377  -22.9391    0.3604 C   0  0  0  0  0  0  0  0  0  0  0  0
   -1.9900  -24.3512    0.3122 C   0  0  0  0  0  0  0  0  0  0  0  0
   -0.7261  -24.8916    0.0524 C   0  0  0  0  0  0  0  0  0  0  0  0
    0.6802  -23.3331   -0.2019 Te  0  0  0  0  0  2  0  0  0  0  0  0
   -1.0164  -22.1320    0.1482 C   0  0  0  0  0  0  0  0  0  0  0  0
   -1.0041  -20.6816    0.1598 C   0  0  0  0  0  0  0  0  0  0  0  0
   -2.1317  -19.8679    0.3818 C   0  0  0  0  0  0  0  0  0  0  0  0
   -2.1007  -18.4451    0.3859 C   0  0  0  0  0  0  0  0  0  0  0  0
   -0.9388  -17.6800    0.1681 C   0  0  0  0  0  0  0  0  0  0  0  0
   -0.8879  -16.2305    0.1638 C   0  0  0  0  0  0  0  0  0  0  0  0
   -1.9763  -15.3762    0.3644 C   0  0  0  0  0  0  0  0  0  0  0  0
   -1.7661  -13.9721    0.3301 C   0  0  0  0  0  0  0  0  0  0  0  0
   -0.4745  -13.4859    0.0985 C   0  0  0  0  0  0  0  0  0  0  0  0
    0.8645  -15.1031   -0.1537 Te  0  0  0  0  0  2  0  0  0  0  0  0
    0.2380  -18.4809   -0.0611 C   0  0  0  0  0  0  0  0  0  0  0  0
    1.4911  -18.0581   -0.2973 N   0  0  0  0  0  0  0  0  0  0  0  0
    2.2617  -19.2494   -0.4528 O   0  0  0  0  0  0  0  0  0  0  0  0
    1.4399  -20.4068   -0.3045 N   0  0  0  0  0  0  0  0  0  0  0  0
    0.2064  -19.9314   -0.0655 C   0  0  0  0  0  0  0  0  0  0  0  0
    1.4288  -10.2152   -0.1815 C   0  0  0  0  0  0  0  0  0  0  0  0
    1.2191  -11.6187   -0.1328 C   0  0  0  0  0  0  0  0  0  0  0  0
   -0.0833  -12.1043    0.0294 C   0  0  0  0  0  0  0  0  0  0  0  0
   -1.4399  -10.4862    0.1497 Te  0  0  0  0  0  2  0  0  0  0  0  0
    0.3283   -9.3600   -0.0694 C   0  0  0  0  0  0  0  0  0  0  0  0
    0.3795   -7.9110   -0.0949 C   0  0  0  0  0  0  0  0  0  0  0  0
    1.5571   -7.1491   -0.2214 C   0  0  0  0  0  0  0  0  0  0  0  0
    1.5885   -5.7268   -0.2444 C   0  0  0  0  0  0  0  0  0  0  0  0
    0.4458   -4.9100   -0.1429 C   0  0  0  0  0  0  0  0  0  0  0  0
    0.4591   -3.4599   -0.1615 C   0  0  0  0  0  0  0  0  0  0  0  0
    1.6008   -2.6582   -0.2550 C   0  0  0  0  0  0  0  0  0  0  0  0
    1.4525   -1.2459   -0.2675 C   0  0  0  0  0  0  0  0  0  0  0  0
    0.1665   -0.6993   -0.1914 C   0  0  0  0  0  0  0  0  0  0  0  0
   -1.2638   -2.2506   -0.0523 Te  0  0  0  0  0  2  0  0  0  0  0  0
   -0.7808   -5.6567   -0.0134 C   0  0  0  0  0  0  0  0  0  0  0  0
   -2.0306   -5.1777    0.1015 N   0  0  0  0  0  0  0  0  0  0  0  0
   -2.8632   -6.3331    0.1993 O   0  0  0  0  0  0  0  0  0  0  0  0
   -2.0823   -7.5264    0.1410 N   0  0  0  0  0  0  0  0  0  0  0  0
   -0.8128   -7.1070    0.0107 C   0  0  0  0  0  0  0  0  0  0  0  0
   -1.6008    2.6582   -0.2550 C   0  0  0  0  0  0  0  0  0  0  0  0
   -1.4525    1.2459   -0.2675 C   0  0  0  0  0  0  0  0  0  0  0  0
   -0.1665    0.6993   -0.1914 C   0  0  0  0  0  0  0  0  0  0  0  0
    1.2638    2.2506   -0.0523 Te  0  0  0  0  0  2  0  0  0  0  0  0
   -0.4591    3.4599   -0.1615 C   0  0  0  0  0  0  0  0  0  0  0  0
   -0.4458    4.9100   -0.1429 C   0  0  0  0  0  0  0  0  0  0  0  0
   -1.5885    5.7268   -0.2444 C   0  0  0  0  0  0  0  0  0  0  0  0
   -1.5571    7.1491   -0.2214 C   0  0  0  0  0  0  0  0  0  0  0  0
   -0.3795    7.9110   -0.0949 C   0  0  0  0  0  0  0  0  0  0  0  0
   -0.3283    9.3600   -0.0694 C   0  0  0  0  0  0  0  0  0  0  0  0
   -1.4288   10.2152   -0.1815 C   0  0  0  0  0  0  0  0  0  0  0  0
   -1.2191   11.6187   -0.1328 C   0  0  0  0  0  0  0  0  0  0  0  0
    0.0833   12.1043    0.0294 C   0  0  0  0  0  0  0  0  0  0  0  0
    1.4399   10.4862    0.1497 Te  0  0  0  0  0  2  0  0  0  0  0  0
    0.8128    7.1070    0.0107 C   0  0  0  0  0  0  0  0  0  0  0  0
    2.0823    7.5264    0.1410 N   0  0  0  0  0  0  0  0  0  0  0  0
    2.8632    6.3331    0.1993 O   0  0  0  0  0  0  0  0  0  0  0  0
    2.0306    5.1777    0.1015 N   0  0  0  0  0  0  0  0  0  0  0  0
    0.7808    5.6567   -0.0134 C   0  0  0  0  0  0  0  0  0  0  0  0
    1.9763   15.3762    0.3644 C   0  0  0  0  0  0  0  0  0  0  0  0
    1.7661   13.9721    0.3301 C   0  0  0  0  0  0  0  0  0  0  0  0
    0.4745   13.4859    0.0985 C   0  0  0  0  0  0  0  0  0  0  0  0
   -0.8645   15.1031   -0.1537 Te  0  0  0  0  0  2  0  0  0  0  0  0
    0.8879   16.2305    0.1638 C   0  0  0  0  0  0  0  0  0  0  0  0
    0.9388   17.6800    0.1681 C   0  0  0  0  0  0  0  0  0  0  0  0
    2.1007   18.4451    0.3859 C   0  0  0  0  0  0  0  0  0  0  0  0
    2.1317   19.8679    0.3818 C   0  0  0  0  0  0  0  0  0  0  0  0
    1.0041   20.6816    0.1598 C   0  0  0  0  0  0  0  0  0  0  0  0
    1.0164   22.1320    0.1482 C   0  0  0  0  0  0  0  0  0  0  0  0
    2.1377   22.9391    0.3604 C   0  0  0  0  0  0  0  0  0  0  0  0
    1.9900   24.3512    0.3122 C   0  0  0  0  0  0  0  0  0  0  0  0
    0.7261   24.8916    0.0524 C   0  0  0  0  0  0  0  0  0  0  0  0
   -0.6802   23.3331   -0.2019 Te  0  0  0  0  0  2  0  0  0  0  0  0
   -0.2064   19.9314   -0.0655 C   0  0  0  0  0  0  0  0  0  0  0  0
   -1.4399   20.4068   -0.3045 N   0  0  0  0  0  0  0  0  0  0  0  0
   -2.2617   19.2494   -0.4528 O   0  0  0  0  0  0  0  0  0  0  0  0
   -1.4911   18.0581   -0.2973 N   0  0  0  0  0  0  0  0  0  0  0  0
   -0.2380   18.4809   -0.0611 C   0  0  0  0  0  0  0  0  0  0  0  0
   -1.0118   28.2414   -0.3559 C   0  0  0  0  0  0  0  0  0  0  0  0
   -0.8638   26.8287   -0.3073 C   0  0  0  0  0  0  0  0  0  0  0  0
    0.3974   26.2893   -0.0346 C   0  0  0  0  0  0  0  0  0  0  0  0
    1.7983   27.8491    0.2411 Te  0  0  0  0  0  2  0  0  0  0  0  0
    0.1059   29.0482   -0.1302 C   0  0  0  0  0  0  0  0  0  0  0  0
    0.1168   30.5008   -0.1449 C   0  0  0  0  0  0  0  0  0  0  0  0
   -1.0041   31.3114   -0.3903 C   0  0  0  0  0  0  0  0  0  0  0  0
   -0.9715   32.7377   -0.3987 C   0  0  0  0  0  0  0  0  0  0  0  0
    0.1819   33.5027   -0.1631 C   0  0  0  0  0  0  0  0  0  0  0  0
    0.2240   34.9608   -0.1683 C   0  0  0  0  0  0  0  0  0  0  0  0
   -0.8601   35.8015   -0.4053 C   0  0  0  0  0  0  0  0  0  0  0  0
   -0.6506   37.2222   -0.3733 C   0  0  0  0  0  0  0  0  0  0  0  0
    0.6296   37.6683   -0.1059 C   0  0  0  0  0  0  0  0  0  0  0  0
    1.9611   36.1106    0.1892 Te  0  0  0  0  0  2  0  0  0  0  0  0
    1.3547   32.7042    0.0925 C   0  0  0  0  0  0  0  0  0  0  0  0
    2.6049   33.1257    0.3517 N   0  0  0  0  0  0  0  0  0  0  0  0
    3.3690   31.9339    0.5256 O   0  0  0  0  0  0  0  0  0  0  0  0
    2.5500   30.7774    0.3653 N   0  0  0  0  0  0  0  0  0  0  0  0
    1.3223   31.2532    0.1011 C   0  0  0  0  0  0  0  0  0  0  0  0
    1.8520  -35.4054   -0.6117 H   0  0  0  0  0  0  0  0  0  0  0  0
    1.4725  -37.9113   -0.5533 H   0  0  0  0  0  0  0  0  0  0  0  0
   -0.9236  -38.7106   -0.0523 H   0  0  0  0  0  0  0  0  0  0  0  0
    1.9078  -33.2487   -0.6013 H   0  0  0  0  0  0  0  0  0  0  0  0
    1.9623  -30.8402   -0.5871 H   0  0  0  0  0  0  0  0  0  0  0  0
    1.9867  -28.6740   -0.5670 H   0  0  0  0  0  0  0  0  0  0  0  0
    1.7258  -26.1858   -0.4830 H   0  0  0  0  0  0  0  0  0  0  0  0
   -3.1149  -22.5059    0.5600 H   0  0  0  0  0  0  0  0  0  0  0  0
   -2.8547  -24.9938    0.4750 H   0  0  0  0  0  0  0  0  0  0  0  0
   -3.0928  -20.3398    0.5616 H   0  0  0  0  0  0  0  0  0  0  0  0
   -3.0403  -17.9328    0.5692 H   0  0  0  0  0  0  0  0  0  0  0  0
   -2.9744  -15.7678    0.5454 H   0  0  0  0  0  0  0  0  0  0  0  0
   -2.6030  -13.2931    0.4902 H   0  0  0  0  0  0  0  0  0  0  0  0
    2.4361   -9.8245   -0.3041 H   0  0  0  0  0  0  0  0  0  0  0  0
    2.0672  -12.2978   -0.2144 H   0  0  0  0  0  0  0  0  0  0  0  0
    2.5091   -7.6640   -0.3076 H   0  0  0  0  0  0  0  0  0  0  0  0
    2.5620   -5.2575   -0.3488 H   0  0  0  0  0  0  0  0  0  0  0  0
    2.5937   -3.0966   -0.3194 H   0  0  0  0  0  0  0  0  0  0  0  0
    2.3313   -0.6074   -0.3518 H   0  0  0  0  0  0  0  0  0  0  0  0
   -2.5937    3.0966   -0.3194 H   0  0  0  0  0  0  0  0  0  0  0  0
   -2.3313    0.6074   -0.3518 H   0  0  0  0  0  0  0  0  0  0  0  0
   -2.5620    5.2575   -0.3488 H   0  0  0  0  0  0  0  0  0  0  0  0
   -2.5091    7.6640   -0.3076 H   0  0  0  0  0  0  0  0  0  0  0  0
   -2.4361    9.8245   -0.3041 H   0  0  0  0  0  0  0  0  0  0  0  0
   -2.0672   12.2978   -0.2144 H   0  0  0  0  0  0  0  0  0  0  0  0
    2.9744   15.7678    0.5454 H   0  0  0  0  0  0  0  0  0  0  0  0
    2.6030   13.2931    0.4902 H   0  0  0  0  0  0  0  0  0  0  0  0
    3.0403   17.9328    0.5692 H   0  0  0  0  0  0  0  0  0  0  0  0
    3.0928   20.3398    0.5616 H   0  0  0  0  0  0  0  0  0  0  0  0
    3.1149   22.5059    0.5600 H   0  0  0  0  0  0  0  0  0  0  0  0
    2.8547   24.9938    0.4750 H   0  0  0  0  0  0  0  0  0  0  0  0
   -1.9867   28.6740   -0.5670 H   0  0  0  0  0  0  0  0  0  0  0  0
   -1.7258   26.1858   -0.4830 H   0  0  0  0  0  0  0  0  0  0  0  0
   -1.9623   30.8402   -0.5871 H   0  0  0  0  0  0  0  0  0  0  0  0
   -1.9078   33.2487   -0.6013 H   0  0  0  0  0  0  0  0  0  0  0  0
   -1.8520   35.4054   -0.6117 H   0  0  0  0  0  0  0  0  0  0  0  0
   -1.4725   37.9113   -0.5533 H   0  0  0  0  0  0  0  0  0  0  0  0
    0.9236   38.7106   -0.0523 H   0  0  0  0  0  0  0  0  0  0  0  0
  1  2  1  0
  2  3  2  0
  3  4  1  0
  4  5  1  0
  5  6  1  0
  6  7  2  0
  7  8  1  0
  8  9  2  0
  9 10  1  0
 10 11  2  0
 11 12  1  0
 12 13  2  0
 13 14  1  0
  9 15  1  0
 15 16  2  0
 16 17  1  0
 17 18  1  0
 18 19  2  0
 20 21  1  0
 21 22  2  0
 22 23  1  0
 23 24  1  0
 24 25  1  0
 25 26  2  0
 26 27  1  0
 27 28  2  0
 28 29  1  0
 29 30  2  0
 30 31  1  0
 31 32  2  0
 32 33  1  0
 28 34  1  0
 34 35  2  0
 35 36  1  0
 36 37  1  0
 37 38  2  0
 39 40  1  0
 40 41  2  0
 41 42  1  0
 42 43  1  0
 43 44  1  0
 44 45  2  0
 45 46  1  0
 46 47  2  0
 47 48  1  0
 48 49  2  0
 49 50  1  0
 50 51  2  0
 51 52  1  0
 47 53  1  0
 53 54  2  0
 54 55  1  0
 55 56  1  0
 56 57  2  0
 58 59  1  0
 59 60  2  0
 60 61  1  0
 61 62  1  0
 62 63  1  0
 63 64  2  0
 64 65  1  0
 65 66  2  0
 66 67  1  0
 67 68  2  0
 68 69  1  0
 69 70  2  0
 70 71  1  0
 66 72  1  0
 72 73  2  0
 73 74  1  0
 74 75  1  0
 75 76  2  0
 77 78  1  0
 78 79  2  0
 79 80  1  0
 80 81  1  0
 81 82  1  0
 82 83  2  0
 83 84  1  0
 84 85  2  0
 85 86  1  0
 86 87  2  0
 87 88  1  0
 88 89  2  0
 89 90  1  0
 85 91  1  0
 91 92  2  0
 92 93  1  0
 93 94  1  0
 94 95  2  0
 96 97  1  0
 97 98  2  0
 98 99  1  0
 99100  1  0
100101  1  0
101102  2  0
102103  1  0
103104  2  0
104105  1  0
105106  2  0
106107  1  0
107108  2  0
108109  1  0
104110  1  0
110111  2  0
111112  1  0
112113  1  0
113114  2  0
  5  1  2  0
 19  6  1  0
 24 20  2  0
 38 25  1  0
 43 39  2  0
 57 44  1  0
 62 58  2  0
 76 63  1  0
 81 77  2  0
 95 82  1  0
100 96  2  0
114101  1  0
 14 10  1  0
 19 15  1  0
 33 29  1  0
 38 34  1  0
 52 48  1  0
 57 53  1  0
 71 67  1  0
 76 72  1  0
 90 86  1  0
 95 91  1  0
109105  1  0
114110  1  0
 13 22  1  0
 32 41  1  0
 51 60  1  0
 70 79  1  0
 89 98  1  0
  1115  1  0
  2116  1  0
  3117  1  0
  7118  1  0
  8119  1  0
 11120  1  0
 12121  1  0
 20122  1  0
 21123  1  0
 26124  1  0
 27125  1  0
 30126  1  0
 31127  1  0
 39128  1  0
 40129  1  0
 45130  1  0
 46131  1  0
 49132  1  0
 50133  1  0
 58134  1  0
 59135  1  0
 64136  1  0
 65137  1  0
 68138  1  0
 69139  1  0
 77140  1  0
 78141  1  0
 83142  1  0
 84143  1  0
 87144  1  0
 88145  1  0
 96146  1  0
 97147  1  0
102148  1  0
103149  1  0
106150  1  0
107151  1  0
108152  1  0
M  END
>  <_StereochemDone>  (12) 
1

>  <File>  (12) 
A-DAD_Hexamer/A-TeOTe6uv.gjf

>  <System_Code>  (12) 
TeOTe

>  <Unit_Type>  (12) 
Hexamer

>  <Family>  (12) 
benzochalcogenadiazole

>  <InChIKey>  (12) 
BKCBIEMLDMFYLZ-UHFFFAOYSA-N

$$$$
A-TeSTe6uv
     RDKit          3D

152175  0  0  0  0  0  0  0  0999 V2000
   35.7064    1.8908   -0.4177 C   0  0  0  0  0  0  0  0  0  0  0  0
   37.1336    1.7211   -0.3856 C   0  0  0  0  0  0  0  0  0  0  0  0
   37.6140    0.4518   -0.1270 C   0  0  0  0  0  0  0  0  0  0  0  0
   36.0880   -0.9267    0.1561 Te  0  0  0  0  0  2  0  0  0  0  0  0
   34.8968    0.7820   -0.1898 C   0  0  0  0  0  0  0  0  0  0  0  0
   33.4387    0.7770   -0.1834 C   0  0  0  0  0  0  0  0  0  0  0  0
   32.6451    1.9115   -0.4080 C   0  0  0  0  0  0  0  0  0  0  0  0
   31.2218    1.9039   -0.3985 C   0  0  0  0  0  0  0  0  0  0  0  0
   30.4481    0.7568   -0.1624 C   0  0  0  0  0  0  0  0  0  0  0  0
   28.9974    0.7291   -0.1458 C   0  0  0  0  0  0  0  0  0  0  0  0
   28.1569    1.8246   -0.3600 C   0  0  0  0  0  0  0  0  0  0  0  0
   26.7494    1.6346   -0.3089 C   0  0  0  0  0  0  0  0  0  0  0  0
   26.2494    0.3546   -0.0453 C   0  0  0  0  0  0  0  0  0  0  0  0
   27.8589   -1.0039    0.2145 Te  0  0  0  0  0  2  0  0  0  0  0  0
   31.2191   -0.4473    0.0750 C   0  0  0  0  0  0  0  0  0  0  0  0
   30.6654   -1.6469    0.3197 N   0  0  0  0  0  0  0  0  0  0  0  0
   31.9720   -2.8195    0.5482 S   0  0  0  0  0  0  0  0  0  0  0  0
   33.2615   -1.6334    0.3022 N   0  0  0  0  0  0  0  0  0  0  0  0
   32.6914   -0.4377    0.0647 C   0  0  0  0  0  0  0  0  0  0  0  0
   22.9546   -1.4847    0.3402 C   0  0  0  0  0  0  0  0  0  0  0  0
   24.3614   -1.2946    0.2891 C   0  0  0  0  0  0  0  0  0  0  0  0
   24.8621   -0.0112    0.0416 C   0  0  0  0  0  0  0  0  0  0  0  0
   23.2535    1.3534   -0.1908 Te  0  0  0  0  0  2  0  0  0  0  0  0
   22.1137   -0.3848    0.1436 C   0  0  0  0  0  0  0  0  0  0  0  0
   20.6651   -0.4105    0.1583 C   0  0  0  0  0  0  0  0  0  0  0  0
   19.8883   -1.5650    0.3692 C   0  0  0  0  0  0  0  0  0  0  0  0
   18.4694   -1.5745    0.3758 C   0  0  0  0  0  0  0  0  0  0  0  0
   17.6755   -0.4303    0.1724 C   0  0  0  0  0  0  0  0  0  0  0  0
   16.2270   -0.4234    0.1701 C   0  0  0  0  0  0  0  0  0  0  0  0
   15.4022   -1.5372    0.3596 C   0  0  0  0  0  0  0  0  0  0  0  0
   13.9931   -1.3650    0.3264 C   0  0  0  0  0  0  0  0  0  0  0  0
   13.4730   -0.0834    0.1075 C   0  0  0  0  0  0  0  0  0  0  0  0
   15.0618    1.3039   -0.1305 Te  0  0  0  0  0  2  0  0  0  0  0  0
   18.4256    0.7892   -0.0465 C   0  0  0  0  0  0  0  0  0  0  0  0
   17.8540    1.9876   -0.2580 N   0  0  0  0  0  0  0  0  0  0  0  0
   19.1435    3.1826   -0.4768 S   0  0  0  0  0  0  0  0  0  0  0  0
   20.4506    2.0047   -0.2722 N   0  0  0  0  0  0  0  0  0  0  0  0
   19.8971    0.7988   -0.0542 C   0  0  0  0  0  0  0  0  0  0  0  0
   10.1531    1.7294   -0.1518 C   0  0  0  0  0  0  0  0  0  0  0  0
   11.5616    1.5576   -0.1042 C   0  0  0  0  0  0  0  0  0  0  0  0
   12.0814    0.2655    0.0423 C   0  0  0  0  0  0  0  0  0  0  0  0
   10.4925   -1.1386    0.1426 Te  0  0  0  0  0  2  0  0  0  0  0  0
    9.3280    0.6039   -0.0553 C   0  0  0  0  0  0  0  0  0  0  0  0
    7.8800    0.6103   -0.0820 C   0  0  0  0  0  0  0  0  0  0  0  0
    7.0885    1.7687   -0.1967 C   0  0  0  0  0  0  0  0  0  0  0  0
    5.6702    1.7591   -0.2205 C   0  0  0  0  0  0  0  0  0  0  0  0
    4.8911    0.5899   -0.1329 C   0  0  0  0  0  0  0  0  0  0  0  0
    3.4432    0.5638   -0.1526 C   0  0  0  0  0  0  0  0  0  0  0  0
    2.6060    1.6811   -0.2407 C   0  0  0  0  0  0  0  0  0  0  0  0
    1.1992    1.4894   -0.2518 C   0  0  0  0  0  0  0  0  0  0  0  0
    0.6937    0.1854   -0.1802 C   0  0  0  0  0  0  0  0  0  0  0  0
    2.2973   -1.1991   -0.0498 Te  0  0  0  0  0  2  0  0  0  0  0  0
    5.6565   -0.6340   -0.0156 C   0  0  0  0  0  0  0  0  0  0  0  0
    5.1003   -1.8545    0.0777 N   0  0  0  0  0  0  0  0  0  0  0  0
    6.4051   -3.0464    0.2050 S   0  0  0  0  0  0  0  0  0  0  0  0
    7.6971   -1.8364    0.1269 N   0  0  0  0  0  0  0  0  0  0  0  0
    7.1278   -0.6238    0.0113 C   0  0  0  0  0  0  0  0  0  0  0  0
   -2.6060   -1.6811   -0.2407 C   0  0  0  0  0  0  0  0  0  0  0  0
   -1.1992   -1.4894   -0.2518 C   0  0  0  0  0  0  0  0  0  0  0  0
   -0.6937   -0.1853   -0.1802 C   0  0  0  0  0  0  0  0  0  0  0  0
   -2.2973    1.1991   -0.0499 Te  0  0  0  0  0  2  0  0  0  0  0  0
   -3.4432   -0.5638   -0.1525 C   0  0  0  0  0  0  0  0  0  0  0  0
   -4.8911   -0.5899   -0.1329 C   0  0  0  0  0  0  0  0  0  0  0  0
   -5.6702   -1.7591   -0.2205 C   0  0  0  0  0  0  0  0  0  0  0  0
   -7.0885   -1.7687   -0.1966 C   0  0  0  0  0  0  0  0  0  0  0  0
   -7.8800   -0.6103   -0.0819 C   0  0  0  0  0  0  0  0  0  0  0  0
   -9.3280   -0.6038   -0.0553 C   0  0  0  0  0  0  0  0  0  0  0  0
  -10.1531   -1.7294   -0.1517 C   0  0  0  0  0  0  0  0  0  0  0  0
  -11.5616   -1.5576   -0.1041 C   0  0  0  0  0  0  0  0  0  0  0  0
  -12.0814   -0.2655    0.0423 C   0  0  0  0  0  0  0  0  0  0  0  0
  -10.4925    1.1386    0.1426 Te  0  0  0  0  0  2  0  0  0  0  0  0
   -7.1278    0.6238    0.0113 C   0  0  0  0  0  0  0  0  0  0  0  0
   -7.6971    1.8364    0.1268 N   0  0  0  0  0  0  0  0  0  0  0  0
   -6.4051    3.0464    0.2050 S   0  0  0  0  0  0  0  0  0  0  0  0
   -5.1003    1.8545    0.0777 N   0  0  0  0  0  0  0  0  0  0  0  0
   -5.6565    0.6340   -0.0156 C   0  0  0  0  0  0  0  0  0  0  0  0
  -15.4022    1.5372    0.3596 C   0  0  0  0  0  0  0  0  0  0  0  0
  -13.9931    1.3650    0.3264 C   0  0  0  0  0  0  0  0  0  0  0  0
  -13.4730    0.0834    0.1075 C   0  0  0  0  0  0  0  0  0  0  0  0
  -15.0618   -1.3039   -0.1305 Te  0  0  0  0  0  2  0  0  0  0  0  0
  -16.2270    0.4234    0.1702 C   0  0  0  0  0  0  0  0  0  0  0  0
  -17.6755    0.4303    0.1724 C   0  0  0  0  0  0  0  0  0  0  0  0
  -18.4694    1.5745    0.3758 C   0  0  0  0  0  0  0  0  0  0  0  0
  -19.8883    1.5650    0.3692 C   0  0  0  0  0  0  0  0  0  0  0  0
  -20.6651    0.4105    0.1584 C   0  0  0  0  0  0  0  0  0  0  0  0
  -22.1137    0.3848    0.1436 C   0  0  0  0  0  0  0  0  0  0  0  0
  -22.9546    1.4847    0.3402 C   0  0  0  0  0  0  0  0  0  0  0  0
  -24.3614    1.2946    0.2891 C   0  0  0  0  0  0  0  0  0  0  0  0
  -24.8621    0.0112    0.0416 C   0  0  0  0  0  0  0  0  0  0  0  0
  -23.2535   -1.3534   -0.1908 Te  0  0  0  0  0  2  0  0  0  0  0  0
  -19.8971   -0.7988   -0.0542 C   0  0  0  0  0  0  0  0  0  0  0  0
  -20.4506   -2.0047   -0.2722 N   0  0  0  0  0  0  0  0  0  0  0  0
  -19.1435   -3.1826   -0.4768 S   0  0  0  0  0  0  0  0  0  0  0  0
  -17.8540   -1.9876   -0.2580 N   0  0  0  0  0  0  0  0  0  0  0  0
  -18.4256   -0.7892   -0.0465 C   0  0  0  0  0  0  0  0  0  0  0  0
  -28.1569   -1.8246   -0.3600 C   0  0  0  0  0  0  0  0  0  0  0  0
  -26.7494   -1.6346   -0.3089 C   0  0  0  0  0  0  0  0  0  0  0  0
  -26.2494   -0.3546   -0.0453 C   0  0  0  0  0  0  0  0  0  0  0  0
  -27.8589    1.0039    0.2145 Te  0  0  0  0  0  2  0  0  0  0  0  0
  -28.9974   -0.7291   -0.1458 C   0  0  0  0  0  0  0  0  0  0  0  0
  -30.4481   -0.7568   -0.1624 C   0  0  0  0  0  0  0  0  0  0  0  0
  -31.2218   -1.9039   -0.3985 C   0  0  0  0  0  0  0  0  0  0  0  0
  -32.6451   -1.9115   -0.4080 C   0  0  0  0  0  0  0  0  0  0  0  0
  -33.4387   -0.7770   -0.1834 C   0  0  0  0  0  0  0  0  0  0  0  0
  -34.8968   -0.7820   -0.1898 C   0  0  0  0  0  0  0  0  0  0  0  0
  -35.7064   -1.8908   -0.4177 C   0  0  0  0  0  0  0  0  0  0  0  0
  -37.1336   -1.7211   -0.3856 C   0  0  0  0  0  0  0  0  0  0  0  0
  -37.6140   -0.4518   -0.1270 C   0  0  0  0  0  0  0  0  0  0  0  0
  -36.0880    0.9266    0.1561 Te  0  0  0  0  0  2  0  0  0  0  0  0
  -32.6914    0.4377    0.0647 C   0  0  0  0  0  0  0  0  0  0  0  0
  -33.2615    1.6334    0.3022 N   0  0  0  0  0  0  0  0  0  0  0  0
  -31.9720    2.8195    0.5482 S   0  0  0  0  0  0  0  0  0  0  0  0
  -30.6654    1.6469    0.3197 N   0  0  0  0  0  0  0  0  0  0  0  0
  -31.2191    0.4473    0.0750 C   0  0  0  0  0  0  0  0  0  0  0  0
   35.2831    2.8730   -0.6172 H   0  0  0  0  0  0  0  0  0  0  0  0
   37.7978    2.5650   -0.5590 H   0  0  0  0  0  0  0  0  0  0  0  0
   38.6655    0.1905   -0.0752 H   0  0  0  0  0  0  0  0  0  0  0  0
   33.1320    2.8626   -0.6017 H   0  0  0  0  0  0  0  0  0  0  0  0
   30.7206    2.8489   -0.5854 H   0  0  0  0  0  0  0  0  0  0  0  0
   28.5601    2.8138   -0.5641 H   0  0  0  0  0  0  0  0  0  0  0  0
   26.0810    2.4789   -0.4760 H   0  0  0  0  0  0  0  0  0  0  0  0
   22.5510   -2.4766    0.5297 H   0  0  0  0  0  0  0  0  0  0  0  0
   25.0297   -2.1421    0.4396 H   0  0  0  0  0  0  0  0  0  0  0  0
   20.3911   -2.5129    0.5366 H   0  0  0  0  0  0  0  0  0  0  0  0
   17.9809   -2.5289    0.5483 H   0  0  0  0  0  0  0  0  0  0  0  0
   15.8208   -2.5261    0.5312 H   0  0  0  0  0  0  0  0  0  0  0  0
   13.3371   -2.2219    0.4780 H   0  0  0  0  0  0  0  0  0  0  0  0
    9.7349    2.7272   -0.2614 H   0  0  0  0  0  0  0  0  0  0  0  0
   12.2173    2.4252   -0.1736 H   0  0  0  0  0  0  0  0  0  0  0  0
    7.5790    2.7347   -0.2716 H   0  0  0  0  0  0  0  0  0  0  0  0
    5.1694    2.7182   -0.3133 H   0  0  0  0  0  0  0  0  0  0  0  0
    3.0137    2.6875   -0.3024 H   0  0  0  0  0  0  0  0  0  0  0  0
    0.5339    2.3487   -0.3313 H   0  0  0  0  0  0  0  0  0  0  0  0
   -3.0137   -2.6875   -0.3023 H   0  0  0  0  0  0  0  0  0  0  0  0
   -0.5339   -2.3487   -0.3312 H   0  0  0  0  0  0  0  0  0  0  0  0
   -5.1694   -2.7182   -0.3133 H   0  0  0  0  0  0  0  0  0  0  0  0
   -7.5790   -2.7347   -0.2715 H   0  0  0  0  0  0  0  0  0  0  0  0
   -9.7349   -2.7272   -0.2614 H   0  0  0  0  0  0  0  0  0  0  0  0
  -12.2173   -2.4252   -0.1735 H   0  0  0  0  0  0  0  0  0  0  0  0
  -15.8208    2.5261    0.5312 H   0  0  0  0  0  0  0  0  0  0  0  0
  -13.3371    2.2219    0.4780 H   0  0  0  0  0  0  0  0  0  0  0  0
  -17.9809    2.5289    0.5483 H   0  0  0  0  0  0  0  0  0  0  0  0
  -20.3911    2.5129    0.5366 H   0  0  0  0  0  0  0  0  0  0  0  0
  -22.5510    2.4766    0.5297 H   0  0  0  0  0  0  0  0  0  0  0  0
  -25.0297    2.1421    0.4395 H   0  0  0  0  0  0  0  0  0  0  0  0
  -28.5601   -2.8138   -0.5641 H   0  0  0  0  0  0  0  0  0  0  0  0
  -26.0810   -2.4789   -0.4760 H   0  0  0  0  0  0  0  0  0  0  0  0
  -30.7206   -2.8489   -0.5854 H   0  0  0  0  0  0  0  0  0  0  0  0
  -33.1320   -2.8626   -0.6017 H   0  0  0  0  0  0  0  0  0  0  0  0
  -35.2831   -2.8730   -0.6172 H   0  0  0  0  0  0  0  0  0  0  0  0
  -37.7978   -2.5650   -0.5590 H   0  0  0  0  0  0  0  0  0  0  0  0
  -38.6655   -0.1905   -0.0752 H   0  0  0  0  0  0  0  0  0  0  0  0
  1  2  1  0
  2  3  2  0
  3  4  1  0
  4  5  1  0
  5  6  1  0
  6  7  2  0
  7  8  1  0
  8  9  2  0
  9 10  1  0
 10 11  2  0
 11 12  1  0
 12 13  2  0
 13 14  1  0
  9 15  1  0
 15 16  2  0
 16 17  1  0
 17 18  1  0
 18 19  2  0
 20 21  1  0
 21 22  2  0
 22 23  1  0
 23 24  1  0
 24 25  1  0
 25 26  2  0
 26 27  1  0
 27 28  2  0
 28 29  1  0
 29 30  2  0
 30 31  1  0
 31 32  2  0
 32 33  1  0
 28 34  1  0
 34 35  2  0
 35 36  1  0
 36 37  1  0
 37 38  2  0
 39 40  1  0
 40 41  2  0
 41 42  1  0
 42 43  1  0
 43 44  1  0
 44 45  2  0
 45 46  1  0
 46 47  2  0
 47 48  1  0
 48 49  2  0
 49 50  1  0
 50 51  2  0
 51 52  1  0
 47 53  1  0
 53 54  2  0
 54 55  1  0
 55 56  1  0
 56 57  2  0
 58 59  1  0
 59 60  2  0
 60 61  1  0
 61 62  1  0
 62 63  1  0
 63 64  2  0
 64 65  1  0
 65 66  2  0
 66 67  1  0
 67 68  2  0
 68 69  1  0
 69 70  2  0
 70 71  1  0
 66 72  1  0
 72 73  2  0
 73 74  1  0
 74 75  1  0
 75 76  2  0
 77 78  1  0
 78 79  2  0
 79 80  1  0
 80 81  1  0
 81 82  1  0
 82 83  2  0
 83 84  1  0
 84 85  2  0
 85 86  1  0
 86 87  2  0
 87 88  1  0
 88 89  2  0
 89 90  1  0
 85 91  1  0
 91 92  2  0
 92 93  1  0
 93 94  1  0
 94 95  2  0
 96 97  1  0
 97 98  2  0
 98 99  1  0
 99100  1  0
100101  1  0
101102  2  0
102103  1  0
103104  2  0
104105  1  0
105106  2  0
106107  1  0
107108  2  0
108109  1  0
104110  1  0
110111  2  0
111112  1  0
112113  1  0
113114  2  0
  5  1  2  0
 19  6  1  0
 24 20  2  0
 38 25  1  0
 43 39  2  0
 57 44  1  0
 62 58  2  0
 76 63  1  0
 81 77  2  0
 95 82  1  0
100 96  2  0
114101  1  0
 14 10  1  0
 19 15  1  0
 33 29  1  0
 38 34  1  0
 52 48  1  0
 57 53  1  0
 71 67  1  0
 76 72  1  0
 90 86  1  0
 95 91  1  0
109105  1  0
114110  1  0
 13 22  1  0
 32 41  1  0
 51 60  1  0
 70 79  1  0
 89 98  1  0
  1115  1  0
  2116  1  0
  3117  1  0
  7118  1  0
  8119  1  0
 11120  1  0
 12121  1  0
 20122  1  0
 21123  1  0
 26124  1  0
 27125  1  0
 30126  1  0
 31127  1  0
 39128  1  0
 40129  1  0
 45130  1  0
 46131  1  0
 49132  1  0
 50133  1  0
 58134  1  0
 59135  1  0
 64136  1  0
 65137  1  0
 68138  1  0
 69139  1  0
 77140  1  0
 78141  1  0
 83142  1  0
 84143  1  0
 87144  1  0
 88145  1  0
 96146  1  0
 97147  1  0
102148  1  0
103149  1  0
106150  1  0
107151  1  0
108152  1  0
M  END
>  <_StereochemDone>  (13) 
1

>  <File>  (13) 
A-DAD_Hexamer/A-TeSTe6uv.gjf

>  <System_Code>  (13) 
TeSTe

>  <Unit_Type>  (13) 
Hexamer

>  <Family>  (13) 
benzochalcogenadiazole

>  <InChIKey>  (13) 
IMTOYKOVCPGKRM-UHFFFAOYSA-N

$$$$
A-TeSeTe6uv
     RDKit          3D

152175  0  0  0  0  0  0  0  0999 V2000
   35.6536   -2.0097    1.0674 C   0  0  0  0  0  0  0  0  0  0  0  0
   37.0819   -1.8452    1.1042 C   0  0  0  0  0  0  0  0  0  0  0  0
   37.5768   -0.5698    0.9120 C   0  0  0  0  0  0  0  0  0  0  0  0
   36.0662    0.8247    0.6100 Te  0  0  0  0  0  2  0  0  0  0  0  0
   34.8579   -0.8905    0.8432 C   0  0  0  0  0  0  0  0  0  0  0  0
   33.4014   -0.8777    0.7714 C   0  0  0  0  0  0  0  0  0  0  0  0
   32.5996   -2.0178    0.9203 C   0  0  0  0  0  0  0  0  0  0  0  0
   31.1787   -2.0068    0.8478 C   0  0  0  0  0  0  0  0  0  0  0  0
   30.4192   -0.8500    0.6183 C   0  0  0  0  0  0  0  0  0  0  0  0
   28.9707   -0.8215    0.5394 C   0  0  0  0  0  0  0  0  0  0  0  0
   28.1219   -1.9232    0.6758 C   0  0  0  0  0  0  0  0  0  0  0  0
   26.7176   -1.7300    0.5716 C   0  0  0  0  0  0  0  0  0  0  0  0
   26.2284   -0.4403    0.3358 C   0  0  0  0  0  0  0  0  0  0  0  0
   27.8501    0.9258    0.1955 Te  0  0  0  0  0  2  0  0  0  0  0  0
   31.1957    0.3674    0.4566 C   0  0  0  0  0  0  0  0  0  0  0  0
   30.6250    1.5617    0.2308 N   0  0  0  0  0  0  0  0  0  0  0  0
   31.9760    2.8533    0.0858 Se  0  0  0  0  0  2  0  0  0  0  0  0
   33.2828    1.5411    0.3676 N   0  0  0  0  0  0  0  0  0  0  0  0
   32.6727    0.3539    0.5326 C   0  0  0  0  0  0  0  0  0  0  0  0
   22.9530    1.4177   -0.1140 C   0  0  0  0  0  0  0  0  0  0  0  0
   24.3563    1.2232   -0.0088 C   0  0  0  0  0  0  0  0  0  0  0  0
   24.8461   -0.0707    0.2038 C   0  0  0  0  0  0  0  0  0  0  0  0
   23.2262   -1.4423    0.3022 Te  0  0  0  0  0  2  0  0  0  0  0  0
   22.1040    0.3117   -0.0044 C   0  0  0  0  0  0  0  0  0  0  0  0
   20.6578    0.3396   -0.0832 C   0  0  0  0  0  0  0  0  0  0  0  0
   19.8954    1.5063   -0.2740 C   0  0  0  0  0  0  0  0  0  0  0  0
   18.4792    1.5212   -0.3467 C   0  0  0  0  0  0  0  0  0  0  0  0
   17.6770    0.3709   -0.2371 C   0  0  0  0  0  0  0  0  0  0  0  0
   16.2304    0.3733   -0.3043 C   0  0  0  0  0  0  0  0  0  0  0  0
   15.4192    1.5006   -0.4736 C   0  0  0  0  0  0  0  0  0  0  0  0
   14.0095    1.3360   -0.5162 C   0  0  0  0  0  0  0  0  0  0  0  0
   13.4744    0.0476   -0.3916 C   0  0  0  0  0  0  0  0  0  0  0  0
   15.0479   -1.3608   -0.1509 Te  0  0  0  0  0  2  0  0  0  0  0  0
   18.4085   -0.8678   -0.0421 C   0  0  0  0  0  0  0  0  0  0  0  0
   17.7969   -2.0580    0.0796 N   0  0  0  0  0  0  0  0  0  0  0  0
   19.1040   -3.3823    0.3176 Se  0  0  0  0  0  2  0  0  0  0  0  0
   20.4551   -2.0852    0.2218 N   0  0  0  0  0  0  0  0  0  0  0  0
   19.8844   -0.8828    0.0361 C   0  0  0  0  0  0  0  0  0  0  0  0
   10.1390   -1.7538   -0.3964 C   0  0  0  0  0  0  0  0  0  0  0  0
   11.5490   -1.5894   -0.3780 C   0  0  0  0  0  0  0  0  0  0  0  0
   12.0801   -0.2937   -0.4089 C   0  0  0  0  0  0  0  0  0  0  0  0
   10.4995    1.1262   -0.4664 Te  0  0  0  0  0  2  0  0  0  0  0  0
    9.3227   -0.6183   -0.4401 C   0  0  0  0  0  0  0  0  0  0  0  0
    7.8749   -0.6152   -0.4619 C   0  0  0  0  0  0  0  0  0  0  0  0
    7.0786   -1.7752   -0.4542 C   0  0  0  0  0  0  0  0  0  0  0  0
    5.6612   -1.7599   -0.4683 C   0  0  0  0  0  0  0  0  0  0  0  0
    4.8906   -0.5827   -0.4913 C   0  0  0  0  0  0  0  0  0  0  0  0
    3.4431   -0.5540   -0.4987 C   0  0  0  0  0  0  0  0  0  0  0  0
    2.6014   -1.6719   -0.4937 C   0  0  0  0  0  0  0  0  0  0  0  0
    1.1954   -1.4767   -0.4929 C   0  0  0  0  0  0  0  0  0  0  0  0
    0.6931   -0.1690   -0.4949 C   0  0  0  0  0  0  0  0  0  0  0  0
    2.3055    1.2163   -0.5095 Te  0  0  0  0  0  2  0  0  0  0  0  0
    5.6576    0.6496   -0.5040 C   0  0  0  0  0  0  0  0  0  0  0  0
    5.0787    1.8620   -0.5274 N   0  0  0  0  0  0  0  0  0  0  0  0
    6.4245    3.1689   -0.5358 Se  0  0  0  0  0  2  0  0  0  0  0  0
    7.7412    1.8330   -0.5044 N   0  0  0  0  0  0  0  0  0  0  0  0
    7.1355    0.6335   -0.4905 C   0  0  0  0  0  0  0  0  0  0  0  0
   -2.6019    1.7043   -0.4354 C   0  0  0  0  0  0  0  0  0  0  0  0
   -1.1958    1.5096   -0.4444 C   0  0  0  0  0  0  0  0  0  0  0  0
   -0.6933    0.2027   -0.4872 C   0  0  0  0  0  0  0  0  0  0  0  0
   -2.3053   -1.1822   -0.5365 Te  0  0  0  0  0  2  0  0  0  0  0  0
   -3.4433    0.5867   -0.4711 C   0  0  0  0  0  0  0  0  0  0  0  0
   -4.8908    0.6144   -0.4614 C   0  0  0  0  0  0  0  0  0  0  0  0
   -5.6623    1.7899   -0.4062 C   0  0  0  0  0  0  0  0  0  0  0  0
   -7.0798    1.8038   -0.3932 C   0  0  0  0  0  0  0  0  0  0  0  0
   -7.8752    0.6438   -0.4343 C   0  0  0  0  0  0  0  0  0  0  0  0
   -9.3230    0.6449   -0.4170 C   0  0  0  0  0  0  0  0  0  0  0  0
  -10.1409    1.7781   -0.3488 C   0  0  0  0  0  0  0  0  0  0  0  0
  -11.5508    1.6116   -0.3405 C   0  0  0  0  0  0  0  0  0  0  0  0
  -12.0801    0.3164   -0.4051 C   0  0  0  0  0  0  0  0  0  0  0  0
  -10.4974   -1.0998   -0.4916 Te  0  0  0  0  0  2  0  0  0  0  0  0
   -7.1347   -0.6032   -0.4947 C   0  0  0  0  0  0  0  0  0  0  0  0
   -7.7394   -1.8024   -0.5403 N   0  0  0  0  0  0  0  0  0  0  0  0
   -6.4216   -3.1359   -0.6095 Se  0  0  0  0  0  2  0  0  0  0  0  0
   -5.0770   -1.8286   -0.5629 N   0  0  0  0  0  0  0  0  0  0  0  0
   -5.6568   -0.6177   -0.5075 C   0  0  0  0  0  0  0  0  0  0  0  0
  -15.4152   -1.4830   -0.5144 C   0  0  0  0  0  0  0  0  0  0  0  0
  -14.0057   -1.3150   -0.5461 C   0  0  0  0  0  0  0  0  0  0  0  0
  -13.4739   -0.0274   -0.4017 C   0  0  0  0  0  0  0  0  0  0  0  0
  -15.0518    1.3751   -0.1552 Te  0  0  0  0  0  2  0  0  0  0  0  0
  -16.2297   -0.3595   -0.3361 C   0  0  0  0  0  0  0  0  0  0  0  0
  -17.6766   -0.3610   -0.2755 C   0  0  0  0  0  0  0  0  0  0  0  0
  -18.4760   -1.5119   -0.3993 C   0  0  0  0  0  0  0  0  0  0  0  0
  -19.8924   -1.5008   -0.3308 C   0  0  0  0  0  0  0  0  0  0  0  0
  -20.6580   -0.3380   -0.1303 C   0  0  0  0  0  0  0  0  0  0  0  0
  -22.1043   -0.3143   -0.0531 C   0  0  0  0  0  0  0  0  0  0  0  0
  -22.9507   -1.4213   -0.1724 C   0  0  0  0  0  0  0  0  0  0  0  0
  -24.3545   -1.2311   -0.0655 C   0  0  0  0  0  0  0  0  0  0  0  0
  -24.8474    0.0598    0.1576 C   0  0  0  0  0  0  0  0  0  0  0  0
  -23.2307    1.4344    0.2675 Te  0  0  0  0  0  2  0  0  0  0  0  0
  -19.8878    0.8851    0.0032 C   0  0  0  0  0  0  0  0  0  0  0  0
  -20.4617    2.0842    0.1998 N   0  0  0  0  0  0  0  0  0  0  0  0
  -19.1135    3.3834    0.3124 Se  0  0  0  0  0  2  0  0  0  0  0  0
  -17.8031    2.0643    0.0649 N   0  0  0  0  0  0  0  0  0  0  0  0
  -18.4117    0.8740   -0.0707 C   0  0  0  0  0  0  0  0  0  0  0  0
  -28.1269    1.9044    0.6337 C   0  0  0  0  0  0  0  0  0  0  0  0
  -26.7228    1.7154    0.5208 C   0  0  0  0  0  0  0  0  0  0  0  0
  -26.2303    0.4251    0.2949 C   0  0  0  0  0  0  0  0  0  0  0  0
  -27.8477   -0.9487    0.1836 Te  0  0  0  0  0  2  0  0  0  0  0  0
  -28.9725    0.7980    0.5162 C   0  0  0  0  0  0  0  0  0  0  0  0
  -30.4203    0.8222    0.6063 C   0  0  0  0  0  0  0  0  0  0  0  0
  -31.1820    1.9788    0.8297 C   0  0  0  0  0  0  0  0  0  0  0  0
  -32.6022    1.9856    0.9139 C   0  0  0  0  0  0  0  0  0  0  0  0
  -33.4012    0.8414    0.7835 C   0  0  0  0  0  0  0  0  0  0  0  0
  -34.8572    0.8503    0.8675 C   0  0  0  0  0  0  0  0  0  0  0  0
  -35.6545    1.9697    1.0857 C   0  0  0  0  0  0  0  0  0  0  0  0
  -37.0817    1.8011    1.1376 C   0  0  0  0  0  0  0  0  0  0  0  0
  -37.5744    0.5220    0.9644 C   0  0  0  0  0  0  0  0  0  0  0  0
  -36.0619   -0.8712    0.6655 Te  0  0  0  0  0  2  0  0  0  0  0  0
  -32.6704   -0.3903    0.5520 C   0  0  0  0  0  0  0  0  0  0  0  0
  -33.2776   -1.5813    0.4050 N   0  0  0  0  0  0  0  0  0  0  0  0
  -31.9685   -2.8922    0.1282 Se  0  0  0  0  0  2  0  0  0  0  0  0
  -30.6207   -1.5944    0.2479 N   0  0  0  0  0  0  0  0  0  0  0  0
  -31.1939   -0.3995    0.4641 C   0  0  0  0  0  0  0  0  0  0  0  0
   35.2196   -2.9968    1.2134 H   0  0  0  0  0  0  0  0  0  0  0  0
   37.7346   -2.6982    1.2770 H   0  0  0  0  0  0  0  0  0  0  0  0
   38.6307   -0.3122    0.9160 H   0  0  0  0  0  0  0  0  0  0  0  0
   33.0779   -2.9758    1.1017 H   0  0  0  0  0  0  0  0  0  0  0  0
   30.6679   -2.9563    0.9790 H   0  0  0  0  0  0  0  0  0  0  0  0
   28.5164   -2.9200    0.8597 H   0  0  0  0  0  0  0  0  0  0  0  0
   26.0432   -2.5795    0.6784 H   0  0  0  0  0  0  0  0  0  0  0  0
   22.5580    2.4177   -0.2774 H   0  0  0  0  0  0  0  0  0  0  0  0
   25.0302    2.0756   -0.0918 H   0  0  0  0  0  0  0  0  0  0  0  0
   20.4078    2.4588   -0.3717 H   0  0  0  0  0  0  0  0  0  0  0  0
   17.9996    2.4842   -0.4955 H   0  0  0  0  0  0  0  0  0  0  0  0
   15.8492    2.4947   -0.5729 H   0  0  0  0  0  0  0  0  0  0  0  0
   13.3651    2.2040   -0.6538 H   0  0  0  0  0  0  0  0  0  0  0  0
    9.7125   -2.7541   -0.3764 H   0  0  0  0  0  0  0  0  0  0  0  0
   12.1975   -2.4649   -0.3502 H   0  0  0  0  0  0  0  0  0  0  0  0
    7.5648   -2.7461   -0.4352 H   0  0  0  0  0  0  0  0  0  0  0  0
    5.1538   -2.7200   -0.4583 H   0  0  0  0  0  0  0  0  0  0  0  0
    3.0056   -2.6815   -0.4885 H   0  0  0  0  0  0  0  0  0  0  0  0
    0.5277   -2.3380   -0.4839 H   0  0  0  0  0  0  0  0  0  0  0  0
   -3.0064    2.7133   -0.3992 H   0  0  0  0  0  0  0  0  0  0  0  0
   -0.5283    2.3703   -0.4116 H   0  0  0  0  0  0  0  0  0  0  0  0
   -5.1557    2.7498   -0.3694 H   0  0  0  0  0  0  0  0  0  0  0  0
   -7.5668    2.7734   -0.3481 H   0  0  0  0  0  0  0  0  0  0  0  0
   -9.7157    2.7781   -0.3025 H   0  0  0  0  0  0  0  0  0  0  0  0
  -12.2004    2.4854   -0.2929 H   0  0  0  0  0  0  0  0  0  0  0  0
  -15.8425   -2.4767   -0.6280 H   0  0  0  0  0  0  0  0  0  0  0  0
  -13.3586   -2.1802   -0.6892 H   0  0  0  0  0  0  0  0  0  0  0  0
  -17.9937   -2.4723   -0.5559 H   0  0  0  0  0  0  0  0  0  0  0  0
  -20.4023   -2.4536   -0.4391 H   0  0  0  0  0  0  0  0  0  0  0  0
  -22.5533   -2.4189   -0.3444 H   0  0  0  0  0  0  0  0  0  0  0  0
  -25.0263   -2.0843   -0.1570 H   0  0  0  0  0  0  0  0  0  0  0  0
  -28.5238    2.9017    0.8092 H   0  0  0  0  0  0  0  0  0  0  0  0
  -26.0512    2.5690    0.6111 H   0  0  0  0  0  0  0  0  0  0  0  0
  -30.6735    2.9313    0.9469 H   0  0  0  0  0  0  0  0  0  0  0  0
  -33.0823    2.9439    1.0894 H   0  0  0  0  0  0  0  0  0  0  0  0
  -35.2223    2.9599    1.2161 H   0  0  0  0  0  0  0  0  0  0  0  0
  -37.7356    2.6543    1.3064 H   0  0  0  0  0  0  0  0  0  0  0  0
  -38.6273    0.2612    0.9809 H   0  0  0  0  0  0  0  0  0  0  0  0
  1  2  1  0
  2  3  2  0
  3  4  1  0
  4  5  1  0
  5  6  1  0
  6  7  2  0
  7  8  1  0
  8  9  2  0
  9 10  1  0
 10 11  2  0
 11 12  1  0
 12 13  2  0
 13 14  1  0
  9 15  1  0
 15 16  2  0
 16 17  1  0
 17 18  1  0
 18 19  2  0
 20 21  1  0
 21 22  2  0
 22 23  1  0
 23 24  1  0
 24 25  1  0
 25 26  2  0
 26 27  1  0
 27 28  2  0
 28 29  1  0
 29 30  2  0
 30 31  1  0
 31 32  2  0
 32 33  1  0
 28 34  1  0
 34 35  2  0
 35 36  1  0
 36 37  1  0
 37 38  2  0
 39 40  1  0
 40 41  2  0
 41 42  1  0
 42 43  1  0
 43 44  1  0
 44 45  2  0
 45 46  1  0
 46 47  2  0
 47 48  1  0
 48 49  2  0
 49 50  1  0
 50 51  2  0
 51 52  1  0
 47 53  1  0
 53 54  2  0
 54 55  1  0
 55 56  1  0
 56 57  2  0
 58 59  1  0
 59 60  2  0
 60 61  1  0
 61 62  1  0
 62 63  1  0
 63 64  2  0
 64 65  1  0
 65 66  2  0
 66 67  1  0
 67 68  2  0
 68 69  1  0
 69 70  2  0
 70 71  1  0
 66 72  1  0
 72 73  2  0
 73 74  1  0
 74 75  1  0
 75 76  2  0
 77 78  1  0
 78 79  2  0
 79 80  1  0
 80 81  1  0
 81 82  1  0
 82 83  2  0
 83 84  1  0
 84 85  2  0
 85 86  1  0
 86 87  2  0
 87 88  1  0
 88 89  2  0
 89 90  1  0
 85 91  1  0
 91 92  2  0
 92 93  1  0
 93 94  1  0
 94 95  2  0
 96 97  1  0
 97 98  2  0
 98 99  1  0
 99100  1  0
100101  1  0
101102  2  0
102103  1  0
103104  2  0
104105  1  0
105106  2  0
106107  1  0
107108  2  0
108109  1  0
104110  1  0
110111  2  0
111112  1  0
112113  1  0
113114  2  0
  5  1  2  0
 19  6  1  0
 24 20  2  0
 38 25  1  0
 43 39  2  0
 57 44  1  0
 62 58  2  0
 76 63  1  0
 81 77  2  0
 95 82  1  0
100 96  2  0
114101  1  0
 14 10  1  0
 19 15  1  0
 33 29  1  0
 38 34  1  0
 52 48  1  0
 57 53  1  0
 71 67  1  0
 76 72  1  0
 90 86  1  0
 95 91  1  0
109105  1  0
114110  1  0
 13 22  1  0
 32 41  1  0
 51 60  1  0
 70 79  1  0
 89 98  1  0
  1115  1  0
  2116  1  0
  3117  1  0
  7118  1  0
  8119  1  0
 11120  1  0
 12121  1  0
 20122  1  0
 21123  1  0
 26124  1  0
 27125  1  0
 30126  1  0
 31127  1  0
 39128  1  0
 40129  1  0
 45130  1  0
 46131  1  0
 49132  1  0
 50133  1  0
 58134  1  0
 59135  1  0
 64136  1  0
 65137  1  0
 68138  1  0
 69139  1  0
 77140  1  0
 78141  1  0
 83142  1  0
 84143  1  0
 87144  1  0
 88145  1  0
 96146  1  0
 97147  1  0
102148  1  0
103149  1  0
106150  1  0
107151  1  0
108152  1  0
M  END
>  <_StereochemDone>  (14) 
1

>  <File>  (14) 
A-DAD_Hexamer/A-TeSeTe6uv.gjf

>  <System_Code>  (14) 
TeSeTe

>  <Unit_Type>  (14) 
Hexamer

>  <Family>  (14) 
benzochalcogenadiazole

>  <InChIKey>  (14) 
MIILDSQAOARACC-UHFFFAOYSA-N

$$$$
A-TeTeTe6uv
     RDKit          3D

152175  0  0  0  0  0  0  0  0999 V2000
   35.6539    2.0726   -0.4604 C   0  0  0  0  0  0  0  0  0  0  0  0
   37.0828    1.9075   -0.4229 C   0  0  0  0  0  0  0  0  0  0  0  0
   37.5662    0.6438   -0.1447 C   0  0  0  0  0  0  0  0  0  0  0  0
   36.0371   -0.7361    0.1563 Te  0  0  0  0  0  2  0  0  0  0  0  0
   34.8475    0.9655   -0.2178 C   0  0  0  0  0  0  0  0  0  0  0  0
   33.3898    0.9483   -0.2125 C   0  0  0  0  0  0  0  0  0  0  0  0
   32.5956    2.0759   -0.4557 C   0  0  0  0  0  0  0  0  0  0  0  0
   31.1734    2.0624   -0.4480 C   0  0  0  0  0  0  0  0  0  0  0  0
   30.4092    0.9148   -0.1954 C   0  0  0  0  0  0  0  0  0  0  0  0
   28.9600    0.8839   -0.1802 C   0  0  0  0  0  0  0  0  0  0  0  0
   28.1116    1.9706   -0.4103 C   0  0  0  0  0  0  0  0  0  0  0  0
   26.7054    1.7717   -0.3572 C   0  0  0  0  0  0  0  0  0  0  0  0
   26.2139    0.4914   -0.0759 C   0  0  0  0  0  0  0  0  0  0  0  0
   27.8410   -0.8541    0.2049 Te  0  0  0  0  0  2  0  0  0  0  0  0
   31.1735   -0.2991    0.0650 C   0  0  0  0  0  0  0  0  0  0  0  0
   30.5612   -1.4648    0.3205 N   0  0  0  0  0  0  0  0  0  0  0  0
   31.9484   -2.9070    0.6305 Te  0  0  0  0  0  2  0  0  0  0  0  0
   33.3008   -1.4378    0.3060 N   0  0  0  0  0  0  0  0  0  0  0  0
   32.6618   -0.2824    0.0566 C   0  0  0  0  0  0  0  0  0  0  0  0
   22.9328   -1.3641    0.3284 C   0  0  0  0  0  0  0  0  0  0  0  0
   24.3382   -1.1645    0.2738 C   0  0  0  0  0  0  0  0  0  0  0  0
   24.8296    0.1210    0.0150 C   0  0  0  0  0  0  0  0  0  0  0  0
   23.2027    1.4746   -0.2259 Te  0  0  0  0  0  2  0  0  0  0  0  0
   22.0835   -0.2715    0.1242 C   0  0  0  0  0  0  0  0  0  0  0  0
   20.6366   -0.3001    0.1399 C   0  0  0  0  0  0  0  0  0  0  0  0
   19.8700   -1.4580    0.3606 C   0  0  0  0  0  0  0  0  0  0  0  0
   18.4531   -1.4746    0.3686 C   0  0  0  0  0  0  0  0  0  0  0  0
   17.6577   -0.3342    0.1574 C   0  0  0  0  0  0  0  0  0  0  0  0
   16.2111   -0.3380    0.1572 C   0  0  0  0  0  0  0  0  0  0  0  0
   15.3889   -1.4533    0.3540 C   0  0  0  0  0  0  0  0  0  0  0  0
   13.9796   -1.2853    0.3212 C   0  0  0  0  0  0  0  0  0  0  0  0
   13.4555   -0.0054    0.0961 C   0  0  0  0  0  0  0  0  0  0  0  0
   15.0488    1.3872   -0.1532 Te  0  0  0  0  0  2  0  0  0  0  0  0
   18.3885    0.9039   -0.0743 C   0  0  0  0  0  0  0  0  0  0  0  0
   17.7475    2.0640   -0.2873 N   0  0  0  0  0  0  0  0  0  0  0  0
   19.0993    3.5461   -0.5712 Te  0  0  0  0  0  2  0  0  0  0  0  0
   20.4873    2.0948   -0.3070 N   0  0  0  0  0  0  0  0  0  0  0  0
   19.8755    0.9206   -0.0842 C   0  0  0  0  0  0  0  0  0  0  0  0
   10.1306    1.7940   -0.1586 C   0  0  0  0  0  0  0  0  0  0  0  0
   11.5394    1.6266   -0.1121 C   0  0  0  0  0  0  0  0  0  0  0  0
   12.0636    0.3350    0.0320 C   0  0  0  0  0  0  0  0  0  0  0  0
   10.4706   -1.0771    0.1290 Te  0  0  0  0  0  2  0  0  0  0  0  0
    9.3085    0.6651   -0.0642 C   0  0  0  0  0  0  0  0  0  0  0  0
    7.8624    0.6599   -0.0888 C   0  0  0  0  0  0  0  0  0  0  0  0
    7.0684    1.8157   -0.1996 C   0  0  0  0  0  0  0  0  0  0  0  0
    5.6523    1.7982   -0.2213 C   0  0  0  0  0  0  0  0  0  0  0  0
    4.8843    0.6228   -0.1357 C   0  0  0  0  0  0  0  0  0  0  0  0
    3.4385    0.5916   -0.1542 C   0  0  0  0  0  0  0  0  0  0  0  0
    2.5910    1.7022   -0.2404 C   0  0  0  0  0  0  0  0  0  0  0  0
    1.1862    1.4985   -0.2498 C   0  0  0  0  0  0  0  0  0  0  0  0
    0.6917    0.1891   -0.1792 C   0  0  0  0  0  0  0  0  0  0  0  0
    2.3160   -1.1839   -0.0517 Te  0  0  0  0  0  2  0  0  0  0  0  0
    5.6440   -0.6142   -0.0218 C   0  0  0  0  0  0  0  0  0  0  0  0
    5.0306   -1.8052    0.0646 N   0  0  0  0  0  0  0  0  0  0  0  0
    6.4169   -3.2751    0.2130 Te  0  0  0  0  0  2  0  0  0  0  0  0
    7.7707   -1.7707    0.1146 N   0  0  0  0  0  0  0  0  0  0  0  0
    7.1308   -0.5955    0.0041 C   0  0  0  0  0  0  0  0  0  0  0  0
   -2.5910   -1.7022   -0.2404 C   0  0  0  0  0  0  0  0  0  0  0  0
   -1.1862   -1.4985   -0.2498 C   0  0  0  0  0  0  0  0  0  0  0  0
   -0.6917   -0.1891   -0.1792 C   0  0  0  0  0  0  0  0  0  0  0  0
   -2.3160    1.1839   -0.0517 Te  0  0  0  0  0  2  0  0  0  0  0  0
   -3.4385   -0.5916   -0.1542 C   0  0  0  0  0  0  0  0  0  0  0  0
   -4.8843   -0.6228   -0.1357 C   0  0  0  0  0  0  0  0  0  0  0  0
   -5.6523   -1.7982   -0.2213 C   0  0  0  0  0  0  0  0  0  0  0  0
   -7.0684   -1.8157   -0.1996 C   0  0  0  0  0  0  0  0  0  0  0  0
   -7.8624   -0.6599   -0.0888 C   0  0  0  0  0  0  0  0  0  0  0  0
   -9.3085   -0.6651   -0.0642 C   0  0  0  0  0  0  0  0  0  0  0  0
  -10.1306   -1.7940   -0.1586 C   0  0  0  0  0  0  0  0  0  0  0  0
  -11.5394   -1.6266   -0.1121 C   0  0  0  0  0  0  0  0  0  0  0  0
  -12.0636   -0.3350    0.0320 C   0  0  0  0  0  0  0  0  0  0  0  0
  -10.4706    1.0771    0.1290 Te  0  0  0  0  0  2  0  0  0  0  0  0
   -7.1308    0.5955    0.0041 C   0  0  0  0  0  0  0  0  0  0  0  0
   -7.7707    1.7707    0.1146 N   0  0  0  0  0  0  0  0  0  0  0  0
   -6.4169    3.2751    0.2130 Te  0  0  0  0  0  2  0  0  0  0  0  0
   -5.0306    1.8052    0.0646 N   0  0  0  0  0  0  0  0  0  0  0  0
   -5.6440    0.6142   -0.0218 C   0  0  0  0  0  0  0  0  0  0  0  0
  -15.3889    1.4533    0.3540 C   0  0  0  0  0  0  0  0  0  0  0  0
  -13.9796    1.2853    0.3212 C   0  0  0  0  0  0  0  0  0  0  0  0
  -13.4555    0.0054    0.0961 C   0  0  0  0  0  0  0  0  0  0  0  0
  -15.0488   -1.3872   -0.1532 Te  0  0  0  0  0  2  0  0  0  0  0  0
  -16.2111    0.3380    0.1572 C   0  0  0  0  0  0  0  0  0  0  0  0
  -17.6577    0.3342    0.1574 C   0  0  0  0  0  0  0  0  0  0  0  0
  -18.4531    1.4746    0.3686 C   0  0  0  0  0  0  0  0  0  0  0  0
  -19.8700    1.4580    0.3606 C   0  0  0  0  0  0  0  0  0  0  0  0
  -20.6366    0.3001    0.1399 C   0  0  0  0  0  0  0  0  0  0  0  0
  -22.0835    0.2715    0.1242 C   0  0  0  0  0  0  0  0  0  0  0  0
  -22.9328    1.3641    0.3284 C   0  0  0  0  0  0  0  0  0  0  0  0
  -24.3382    1.1645    0.2738 C   0  0  0  0  0  0  0  0  0  0  0  0
  -24.8296   -0.1210    0.0150 C   0  0  0  0  0  0  0  0  0  0  0  0
  -23.2027   -1.4746   -0.2259 Te  0  0  0  0  0  2  0  0  0  0  0  0
  -19.8755   -0.9206   -0.0842 C   0  0  0  0  0  0  0  0  0  0  0  0
  -20.4873   -2.0948   -0.3070 N   0  0  0  0  0  0  0  0  0  0  0  0
  -19.0993   -3.5461   -0.5712 Te  0  0  0  0  0  2  0  0  0  0  0  0
  -17.7475   -2.0640   -0.2873 N   0  0  0  0  0  0  0  0  0  0  0  0
  -18.3885   -0.9039   -0.0743 C   0  0  0  0  0  0  0  0  0  0  0  0
  -28.1116   -1.9706   -0.4103 C   0  0  0  0  0  0  0  0  0  0  0  0
  -26.7054   -1.7717   -0.3572 C   0  0  0  0  0  0  0  0  0  0  0  0
  -26.2139   -0.4914   -0.0759 C   0  0  0  0  0  0  0  0  0  0  0  0
  -27.8410    0.8541    0.2049 Te  0  0  0  0  0  2  0  0  0  0  0  0
  -28.9600   -0.8839   -0.1802 C   0  0  0  0  0  0  0  0  0  0  0  0
  -30.4092   -0.9148   -0.1954 C   0  0  0  0  0  0  0  0  0  0  0  0
  -31.1734   -2.0624   -0.4480 C   0  0  0  0  0  0  0  0  0  0  0  0
  -32.5956   -2.0759   -0.4557 C   0  0  0  0  0  0  0  0  0  0  0  0
  -33.3898   -0.9483   -0.2125 C   0  0  0  0  0  0  0  0  0  0  0  0
  -34.8475   -0.9655   -0.2178 C   0  0  0  0  0  0  0  0  0  0  0  0
  -35.6539   -2.0726   -0.4604 C   0  0  0  0  0  0  0  0  0  0  0  0
  -37.0828   -1.9075   -0.4229 C   0  0  0  0  0  0  0  0  0  0  0  0
  -37.5662   -0.6438   -0.1447 C   0  0  0  0  0  0  0  0  0  0  0  0
  -36.0371    0.7361    0.1563 Te  0  0  0  0  0  2  0  0  0  0  0  0
  -32.6618    0.2824    0.0566 C   0  0  0  0  0  0  0  0  0  0  0  0
  -33.3008    1.4378    0.3060 N   0  0  0  0  0  0  0  0  0  0  0  0
  -31.9484    2.9070    0.6305 Te  0  0  0  0  0  2  0  0  0  0  0  0
  -30.5612    1.4648    0.3205 N   0  0  0  0  0  0  0  0  0  0  0  0
  -31.1735    0.2991    0.0650 C   0  0  0  0  0  0  0  0  0  0  0  0
   35.2285    3.0509   -0.6752 H   0  0  0  0  0  0  0  0  0  0  0  0
   37.7432    2.7523   -0.6079 H   0  0  0  0  0  0  0  0  0  0  0  0
   38.6195    0.3894   -0.0876 H   0  0  0  0  0  0  0  0  0  0  0  0
   33.0809    3.0252   -0.6630 H   0  0  0  0  0  0  0  0  0  0  0  0
   30.6658    3.0012   -0.6497 H   0  0  0  0  0  0  0  0  0  0  0  0
   28.5084    2.9596   -0.6283 H   0  0  0  0  0  0  0  0  0  0  0  0
   26.0315    2.6092   -0.5370 H   0  0  0  0  0  0  0  0  0  0  0  0
   22.5361   -2.3573    0.5262 H   0  0  0  0  0  0  0  0  0  0  0  0
   25.0124   -2.0065    0.4298 H   0  0  0  0  0  0  0  0  0  0  0  0
   20.3803   -2.4010    0.5343 H   0  0  0  0  0  0  0  0  0  0  0  0
   17.9666   -2.4289    0.5485 H   0  0  0  0  0  0  0  0  0  0  0  0
   15.8108   -2.4400    0.5311 H   0  0  0  0  0  0  0  0  0  0  0  0
   13.3263   -2.1433    0.4790 H   0  0  0  0  0  0  0  0  0  0  0  0
    9.7087    2.7908   -0.2653 H   0  0  0  0  0  0  0  0  0  0  0  0
   12.1921    2.4968   -0.1791 H   0  0  0  0  0  0  0  0  0  0  0  0
    7.5563    2.7833   -0.2726 H   0  0  0  0  0  0  0  0  0  0  0  0
    5.1430    2.7534   -0.3106 H   0  0  0  0  0  0  0  0  0  0  0  0
    2.9904    2.7120   -0.3021 H   0  0  0  0  0  0  0  0  0  0  0  0
    0.5136    2.3525   -0.3278 H   0  0  0  0  0  0  0  0  0  0  0  0
   -2.9904   -2.7120   -0.3021 H   0  0  0  0  0  0  0  0  0  0  0  0
   -0.5136   -2.3525   -0.3278 H   0  0  0  0  0  0  0  0  0  0  0  0
   -5.1430   -2.7534   -0.3106 H   0  0  0  0  0  0  0  0  0  0  0  0
   -7.5563   -2.7833   -0.2726 H   0  0  0  0  0  0  0  0  0  0  0  0
   -9.7087   -2.7908   -0.2653 H   0  0  0  0  0  0  0  0  0  0  0  0
  -12.1921   -2.4968   -0.1791 H   0  0  0  0  0  0  0  0  0  0  0  0
  -15.8108    2.4400    0.5311 H   0  0  0  0  0  0  0  0  0  0  0  0
  -13.3263    2.1433    0.4790 H   0  0  0  0  0  0  0  0  0  0  0  0
  -17.9666    2.4289    0.5485 H   0  0  0  0  0  0  0  0  0  0  0  0
  -20.3803    2.4010    0.5343 H   0  0  0  0  0  0  0  0  0  0  0  0
  -22.5361    2.3573    0.5262 H   0  0  0  0  0  0  0  0  0  0  0  0
  -25.0124    2.0065    0.4298 H   0  0  0  0  0  0  0  0  0  0  0  0
  -28.5084   -2.9596   -0.6283 H   0  0  0  0  0  0  0  0  0  0  0  0
  -26.0315   -2.6092   -0.5370 H   0  0  0  0  0  0  0  0  0  0  0  0
  -30.6658   -3.0012   -0.6497 H   0  0  0  0  0  0  0  0  0  0  0  0
  -33.0809   -3.0252   -0.6630 H   0  0  0  0  0  0  0  0  0  0  0  0
  -35.2285   -3.0509   -0.6752 H   0  0  0  0  0  0  0  0  0  0  0  0
  -37.7432   -2.7523   -0.6079 H   0  0  0  0  0  0  0  0  0  0  0  0
  -38.6195   -0.3894   -0.0876 H   0  0  0  0  0  0  0  0  0  0  0  0
  1  2  1  0
  2  3  2  0
  3  4  1  0
  4  5  1  0
  5  6  1  0
  6  7  2  0
  7  8  1  0
  8  9  2  0
  9 10  1  0
 10 11  2  0
 11 12  1  0
 12 13  2  0
 13 14  1  0
  9 15  1  0
 15 16  2  0
 16 17  1  0
 17 18  1  0
 18 19  2  0
 20 21  1  0
 21 22  2  0
 22 23  1  0
 23 24  1  0
 24 25  1  0
 25 26  2  0
 26 27  1  0
 27 28  2  0
 28 29  1  0
 29 30  2  0
 30 31  1  0
 31 32  2  0
 32 33  1  0
 28 34  1  0
 34 35  2  0
 35 36  1  0
 36 37  1  0
 37 38  2  0
 39 40  1  0
 40 41  2  0
 41 42  1  0
 42 43  1  0
 43 44  1  0
 44 45  2  0
 45 46  1  0
 46 47  2  0
 47 48  1  0
 48 49  2  0
 49 50  1  0
 50 51  2  0
 51 52  1  0
 47 53  1  0
 53 54  2  0
 54 55  1  0
 55 56  1  0
 56 57  2  0
 58 59  1  0
 59 60  2  0
 60 61  1  0
 61 62  1  0
 62 63  1  0
 63 64  2  0
 64 65  1  0
 65 66  2  0
 66 67  1  0
 67 68  2  0
 68 69  1  0
 69 70  2  0
 70 71  1  0
 66 72  1  0
 72 73  2  0
 73 74  1  0
 74 75  1  0
 75 76  2  0
 77 78  1  0
 78 79  2  0
 79 80  1  0
 80 81  1  0
 81 82  1  0
 82 83  2  0
 83 84  1  0
 84 85  2  0
 85 86  1  0
 86 87  2  0
 87 88  1  0
 88 89  2  0
 89 90  1  0
 85 91  1  0
 91 92  2  0
 92 93  1  0
 93 94  1  0
 94 95  2  0
 96 97  1  0
 97 98  2  0
 98 99  1  0
 99100  1  0
100101  1  0
101102  2  0
102103  1  0
103104  2  0
104105  1  0
105106  2  0
106107  1  0
107108  2  0
108109  1  0
104110  1  0
110111  2  0
111112  1  0
112113  1  0
113114  2  0
  5  1  2  0
 19  6  1  0
 24 20  2  0
 38 25  1  0
 43 39  2  0
 57 44  1  0
 62 58  2  0
 76 63  1  0
 81 77  2  0
 95 82  1  0
100 96  2  0
114101  1  0
 14 10  1  0
 19 15  1  0
 33 29  1  0
 38 34  1  0
 52 48  1  0
 57 53  1  0
 71 67  1  0
 76 72  1  0
 90 86  1  0
 95 91  1  0
109105  1  0
114110  1  0
 13 22  1  0
 32 41  1  0
 51 60  1  0
 70 79  1  0
 89 98  1  0
  1115  1  0
  2116  1  0
  3117  1  0
  7118  1  0
  8119  1  0
 11120  1  0
 12121  1  0
 20122  1  0
 21123  1  0
 26124  1  0
 27125  1  0
 30126  1  0
 31127  1  0
 39128  1  0
 40129  1  0
 45130  1  0
 46131  1  0
 49132  1  0
 50133  1  0
 58134  1  0
 59135  1  0
 64136  1  0
 65137  1  0
 68138  1  0
 69139  1  0
 77140  1  0
 78141  1  0
 83142  1  0
 84143  1  0
 87144  1  0
 88145  1  0
 96146  1  0
 97147  1  0
102148  1  0
103149  1  0
106150  1  0
107151  1  0
108152  1  0
M  END
>  <_StereochemDone>  (15) 
1

>  <File>  (15) 
A-DAD_Hexamer/A-TeTeTe6uv.gjf

>  <System_Code>  (15) 
TeTeTe

>  <Unit_Type>  (15) 
Hexamer

>  <Family>  (15) 
benzochalcogenadiazole

>  <InChIKey>  (15) 
VLDYKYZUVYHLLH-UHFFFAOYSA-N

$$$$
AOOO1-b-uv
     RDKit          3D

 27 30  0  0  0  0  0  0  0  0999 V2000
   -3.8888    0.6597    0.0004 C   0  0  0  0  0  0  0  0  0  0  0  0
   -5.1761    0.0120    0.0006 C   0  0  0  0  0  0  0  0  0  0  0  0
   -4.9437   -1.3458    0.0002 C   0  0  0  0  0  0  0  0  0  0  0  0
   -3.5697   -1.5916   -0.0001 O   0  0  0  0  0  0  0  0  0  0  0  0
   -2.9267   -0.3382    0.0000 C   0  0  0  0  0  0  0  0  0  0  0  0
   -1.4794   -0.3380   -0.0002 C   0  0  0  0  0  0  0  0  0  0  0  0
   -0.7155   -1.5058   -0.0004 C   0  0  0  0  0  0  0  0  0  0  0  0
    0.7155   -1.5058   -0.0004 C   0  0  0  0  0  0  0  0  0  0  0  0
    1.4794   -0.3380   -0.0003 C   0  0  0  0  0  0  0  0  0  0  0  0
    2.9267   -0.3383   -0.0001 C   0  0  0  0  0  0  0  0  0  0  0  0
    3.8888    0.6597    0.0006 C   0  0  0  0  0  0  0  0  0  0  0  0
    5.1761    0.0120    0.0008 C   0  0  0  0  0  0  0  0  0  0  0  0
    4.9437   -1.3457    0.0002 C   0  0  0  0  0  0  0  0  0  0  0  0
    3.5697   -1.5916   -0.0003 O   0  0  0  0  0  0  0  0  0  0  0  0
    0.7274    0.8930   -0.0003 C   0  0  0  0  0  0  0  0  0  0  0  0
    1.1801    2.1608   -0.0003 N   0  0  0  0  0  0  0  0  0  0  0  0
    0.0000    2.9617   -0.0003 O   0  0  0  0  0  0  0  0  0  0  0  0
   -1.1801    2.1608   -0.0002 N   0  0  0  0  0  0  0  0  0  0  0  0
   -0.7274    0.8930   -0.0002 C   0  0  0  0  0  0  0  0  0  0  0  0
   -3.6874    1.7201    0.0006 H   0  0  0  0  0  0  0  0  0  0  0  0
   -6.1424    0.4942    0.0009 H   0  0  0  0  0  0  0  0  0  0  0  0
   -5.5785   -2.2171    0.0002 H   0  0  0  0  0  0  0  0  0  0  0  0
   -1.2346   -2.4589   -0.0004 H   0  0  0  0  0  0  0  0  0  0  0  0
    1.2346   -2.4589   -0.0005 H   0  0  0  0  0  0  0  0  0  0  0  0
    3.6874    1.7201    0.0009 H   0  0  0  0  0  0  0  0  0  0  0  0
    6.1424    0.4941    0.0013 H   0  0  0  0  0  0  0  0  0  0  0  0
    5.5785   -2.2171    0.0001 H   0  0  0  0  0  0  0  0  0  0  0  0
  1  2  1  0
  2  3  2  0
  3  4  1  0
  4  5  1  0
  5  6  1  0
  6  7  2  0
  7  8  1  0
  8  9  2  0
  9 10  1  0
 10 11  2  0
 11 12  1  0
 12 13  2  0
 13 14  1  0
  9 15  1  0
 15 16  2  0
 16 17  1  0
 17 18  1  0
 18 19  2  0
  5  1  2  0
 19  6  1  0
 14 10  1  0
 19 15  1  0
  1 20  1  0
  2 21  1  0
  3 22  1  0
  7 23  1  0
  8 24  1  0
 11 25  1  0
 12 26  1  0
 13 27  1  0
M  END
>  <File>  (16) 
A-DAD_Monomer/AOOO1-b-uv.gjf

>  <System_Code>  (16) 
OOO

>  <Unit_Type>  (16) 
Monomer

>  <Family>  (16) 
benzochalcogenadiazole

>  <InChIKey>  (16) 
DTFAOJKINHJZBV-UHFFFAOYSA-N

$$$$
AOSO1-uv
     RDKit          3D

 27 30  0  0  0  0  0  0  0  0999 V2000
    3.9190    0.4230    0.0001 C   0  0  0  0  0  0  0  0  0  0  0  0
    5.1901   -0.2594   -0.0000 C   0  0  0  0  0  0  0  0  0  0  0  0
    4.9230   -1.6103   -0.0005 C   0  0  0  0  0  0  0  0  0  0  0  0
    3.5399   -1.8180   -0.0005 O   0  0  0  0  0  0  0  0  0  0  0  0
    2.9266   -0.5454   -0.0002 C   0  0  0  0  0  0  0  0  0  0  0  0
    1.4759   -0.5203   -0.0002 C   0  0  0  0  0  0  0  0  0  0  0  0
    0.7139   -1.6878   -0.0005 C   0  0  0  0  0  0  0  0  0  0  0  0
   -0.7138   -1.6878   -0.0004 C   0  0  0  0  0  0  0  0  0  0  0  0
   -1.4759   -0.5203   -0.0001 C   0  0  0  0  0  0  0  0  0  0  0  0
   -2.9266   -0.5454   -0.0001 C   0  0  0  0  0  0  0  0  0  0  0  0
   -3.9190    0.4230   -0.0003 C   0  0  0  0  0  0  0  0  0  0  0  0
   -5.1900   -0.2594   -0.0001 C   0  0  0  0  0  0  0  0  0  0  0  0
   -4.9230   -1.6103    0.0002 C   0  0  0  0  0  0  0  0  0  0  0  0
   -3.5399   -1.8180    0.0003 O   0  0  0  0  0  0  0  0  0  0  0  0
   -0.7400    0.7291    0.0001 C   0  0  0  0  0  0  0  0  0  0  0  0
   -1.3040    1.9522    0.0004 N   0  0  0  0  0  0  0  0  0  0  0  0
   -0.0000    3.1453    0.0006 S   0  0  0  0  0  0  0  0  0  0  0  0
    1.3040    1.9522    0.0004 N   0  0  0  0  0  0  0  0  0  0  0  0
    0.7400    0.7291    0.0001 C   0  0  0  0  0  0  0  0  0  0  0  0
    3.7468    1.4872    0.0005 H   0  0  0  0  0  0  0  0  0  0  0  0
    6.1688    0.1969    0.0001 H   0  0  0  0  0  0  0  0  0  0  0  0
    5.5354   -2.4978   -0.0008 H   0  0  0  0  0  0  0  0  0  0  0  0
    1.2276   -2.6435   -0.0007 H   0  0  0  0  0  0  0  0  0  0  0  0
   -1.2276   -2.6435   -0.0006 H   0  0  0  0  0  0  0  0  0  0  0  0
   -3.7467    1.4872   -0.0006 H   0  0  0  0  0  0  0  0  0  0  0  0
   -6.1688    0.1969   -0.0002 H   0  0  0  0  0  0  0  0  0  0  0  0
   -5.5354   -2.4978    0.0005 H   0  0  0  0  0  0  0  0  0  0  0  0
  1  2  1  0
  2  3  2  0
  3  4  1  0
  4  5  1  0
  5  6  1  0
  6  7  2  0
  7  8  1  0
  8  9  2  0
  9 10  1  0
 10 11  2  0
 11 12  1  0
 12 13  2  0
 13 14  1  0
  9 15  1  0
 15 16  2  0
 16 17  1  0
 17 18  1  0
 18 19  2  0
  5  1  2  0
 19  6  1  0
 14 10  1  0
 19 15  1  0
  1 20  1  0
  2 21  1  0
  3 22  1  0
  7 23  1  0
  8 24  1  0
 11 25  1  0
 12 26  1  0
 13 27  1  0
M  END
>  <File>  (17) 
A-DAD_Monomer/AOSO1-uv.gjf

>  <System_Code>  (17) 
OSO

>  <Unit_Type>  (17) 
Monomer

>  <Family>  (17) 
benzochalcogenadiazole

>  <InChIKey>  (17) 
BJEBVQSFQBACNV-UHFFFAOYSA-N

$$$$
ASeSSe1-uv
     RDKit          3D

 27 30  0  0  0  0  0  0  0  0999 V2000
    3.7558    2.0511    0.0001 C   0  0  0  0  0  0  0  0  0  0  0  0
    5.1737    1.8347    0.0002 C   0  0  0  0  0  0  0  0  0  0  0  0
    5.5565    0.5090   -0.0000 C   0  0  0  0  0  0  0  0  0  0  0  0
    4.0671   -0.6755   -0.0003 Se  0  0  0  0  0  2  0  0  0  0  0  0
    2.9550    0.9134   -0.0001 C   0  0  0  0  0  0  0  0  0  0  0  0
    1.4942    0.8844   -0.0002 C   0  0  0  0  0  0  0  0  0  0  0  0
    0.7131    2.0439   -0.0006 C   0  0  0  0  0  0  0  0  0  0  0  0
   -0.7131    2.0439   -0.0004 C   0  0  0  0  0  0  0  0  0  0  0  0
   -1.4942    0.8844    0.0003 C   0  0  0  0  0  0  0  0  0  0  0  0
   -2.9550    0.9134    0.0005 C   0  0  0  0  0  0  0  0  0  0  0  0
   -3.7558    2.0511    0.0012 C   0  0  0  0  0  0  0  0  0  0  0  0
   -5.1737    1.8347    0.0008 C   0  0  0  0  0  0  0  0  0  0  0  0
   -5.5565    0.5090   -0.0003 C   0  0  0  0  0  0  0  0  0  0  0  0
   -4.0671   -0.6755   -0.0007 Se  0  0  0  0  0  2  0  0  0  0  0  0
   -0.7386   -0.3523    0.0004 C   0  0  0  0  0  0  0  0  0  0  0  0
   -1.3009   -1.5741    0.0006 N   0  0  0  0  0  0  0  0  0  0  0  0
   -0.0000   -2.7705    0.0007 S   0  0  0  0  0  0  0  0  0  0  0  0
    1.3008   -1.5741    0.0004 N   0  0  0  0  0  0  0  0  0  0  0  0
    0.7386   -0.3523    0.0002 C   0  0  0  0  0  0  0  0  0  0  0  0
    3.3412    3.0545    0.0004 H   0  0  0  0  0  0  0  0  0  0  0  0
    5.8865    2.6538    0.0003 H   0  0  0  0  0  0  0  0  0  0  0  0
    6.5683    0.1237    0.0000 H   0  0  0  0  0  0  0  0  0  0  0  0
    1.2046    3.0118   -0.0013 H   0  0  0  0  0  0  0  0  0  0  0  0
   -1.2046    3.0118   -0.0009 H   0  0  0  0  0  0  0  0  0  0  0  0
   -3.3412    3.0545    0.0022 H   0  0  0  0  0  0  0  0  0  0  0  0
   -5.8865    2.6538    0.0012 H   0  0  0  0  0  0  0  0  0  0  0  0
   -6.5683    0.1237   -0.0008 H   0  0  0  0  0  0  0  0  0  0  0  0
  1  2  1  0
  2  3  2  0
  3  4  1  0
  4  5  1  0
  5  6  1  0
  6  7  2  0
  7  8  1  0
  8  9  2  0
  9 10  1  0
 10 11  2  0
 11 12  1  0
 12 13  2  0
 13 14  1  0
  9 15  1  0
 15 16  2  0
 16 17  1  0
 17 18  1  0
 18 19  2  0
  5  1  2  0
 19  6  1  0
 14 10  1  0
 19 15  1  0
  1 20  1  0
  2 21  1  0
  3 22  1  0
  7 23  1  0
  8 24  1  0
 11 25  1  0
 12 26  1  0
 13 27  1  0
M  END
>  <File>  (18) 
A-DAD_Monomer/ASeSSe1-uv.gjf

>  <System_Code>  (18) 
SeSSe

>  <Unit_Type>  (18) 
Monomer

>  <Family>  (18) 
benzochalcogenadiazole

>  <InChIKey>  (18) 
WKDPDTIBNWGAIG-UHFFFAOYSA-N

$$$$
C-OOO6-UV
     RDKit          3D

176205  0  0  0  0  0  0  0  0999 V2000
  -30.7710    1.8099    0.0007 C   0  0  0  0  0  0  0  0  0  0  0  0
  -32.0218    1.1088    0.0008 C   0  0  0  0  0  0  0  0  0  0  0  0
  -31.7251   -0.2403    0.0007 C   0  0  0  0  0  0  0  0  0  0  0  0
  -30.3512   -0.4225    0.0005 O   0  0  0  0  0  0  0  0  0  0  0  0
  -29.7519    0.8553    0.0005 C   0  0  0  0  0  0  0  0  0  0  0  0
  -28.3076    0.8977    0.0004 C   0  0  0  0  0  0  0  0  0  0  0  0
  -27.5637    2.1129    0.0004 C   0  0  0  0  0  0  0  0  0  0  0  0
  -28.2695    3.3145    0.0005 N   0  0  0  0  0  0  0  0  0  0  0  0
  -27.6017    4.4576    0.0005 C   0  0  0  0  0  0  0  0  0  0  0  0
  -26.1649    4.4905    0.0004 C   0  0  0  0  0  0  0  0  0  0  0  0
  -25.4471    3.3771    0.0002 N   0  0  0  0  0  0  0  0  0  0  0  0
  -26.0978    2.1479    0.0002 C   0  0  0  0  0  0  0  0  0  0  0  0
  -25.2983    0.9655    0.0001 C   0  0  0  0  0  0  0  0  0  0  0  0
  -23.8623    0.9865   -0.0001 C   0  0  0  0  0  0  0  0  0  0  0  0
  -22.8763    1.9881   -0.0002 C   0  0  0  0  0  0  0  0  0  0  0  0
  -21.6070    1.3539   -0.0003 C   0  0  0  0  0  0  0  0  0  0  0  0
  -21.8390   -0.0240   -0.0003 C   0  0  0  0  0  0  0  0  0  0  0  0
  -23.2113   -0.2637   -0.0002 O   0  0  0  0  0  0  0  0  0  0  0  0
  -26.0456   -0.2645    0.0001 C   0  0  0  0  0  0  0  0  0  0  0  0
  -25.5669   -1.5323   -0.0000 N   0  0  0  0  0  0  0  0  0  0  0  0
  -26.7311   -2.3443    0.0000 O   0  0  0  0  0  0  0  0  0  0  0  0
  -27.9288   -1.5854    0.0002 N   0  0  0  0  0  0  0  0  0  0  0  0
  -27.5063   -0.2959    0.0002 C   0  0  0  0  0  0  0  0  0  0  0  0
  -19.9382   -3.1650   -0.0006 C   0  0  0  0  0  0  0  0  0  0  0  0
  -21.2086   -2.5344   -0.0005 C   0  0  0  0  0  0  0  0  0  0  0  0
  -20.9807   -1.1555   -0.0004 C   0  0  0  0  0  0  0  0  0  0  0  0
  -19.6090   -0.9118   -0.0005 O   0  0  0  0  0  0  0  0  0  0  0  0
  -18.9538   -2.1600   -0.0006 C   0  0  0  0  0  0  0  0  0  0  0  0
  -17.5202   -2.1344   -0.0006 C   0  0  0  0  0  0  0  0  0  0  0  0
  -16.7163   -3.3177   -0.0007 C   0  0  0  0  0  0  0  0  0  0  0  0
  -17.3635   -4.5473   -0.0007 N   0  0  0  0  0  0  0  0  0  0  0  0
  -16.6418   -5.6604   -0.0007 C   0  0  0  0  0  0  0  0  0  0  0  0
  -15.2082   -5.6238   -0.0007 C   0  0  0  0  0  0  0  0  0  0  0  0
  -14.5445   -4.4751   -0.0007 N   0  0  0  0  0  0  0  0  0  0  0  0
  -15.2536   -3.2805   -0.0007 C   0  0  0  0  0  0  0  0  0  0  0  0
  -14.5116   -2.0570   -0.0007 C   0  0  0  0  0  0  0  0  0  0  0  0
  -13.0793   -2.0082   -0.0008 C   0  0  0  0  0  0  0  0  0  0  0  0
  -12.0435   -2.9612   -0.0008 C   0  0  0  0  0  0  0  0  0  0  0  0
  -10.8082   -2.2666   -0.0008 C   0  0  0  0  0  0  0  0  0  0  0  0
  -11.1067   -0.9000   -0.0008 C   0  0  0  0  0  0  0  0  0  0  0  0
  -12.4896   -0.7279   -0.0008 O   0  0  0  0  0  0  0  0  0  0  0  0
  -15.3171   -0.8631   -0.0007 C   0  0  0  0  0  0  0  0  0  0  0  0
  -14.8991    0.4256   -0.0007 N   0  0  0  0  0  0  0  0  0  0  0  0
  -16.1004    1.1836   -0.0006 O   0  0  0  0  0  0  0  0  0  0  0  0
  -17.2612    0.3649   -0.0006 N   0  0  0  0  0  0  0  0  0  0  0  0
  -16.7775   -0.9007   -0.0006 C   0  0  0  0  0  0  0  0  0  0  0  0
   -9.3757    2.3352   -0.0007 C   0  0  0  0  0  0  0  0  0  0  0  0
  -10.6092    1.6380   -0.0007 C   0  0  0  0  0  0  0  0  0  0  0  0
  -10.3078    0.2720   -0.0008 C   0  0  0  0  0  0  0  0  0  0  0  0
   -8.9246    0.1026   -0.0008 O   0  0  0  0  0  0  0  0  0  0  0  0
   -8.3375    1.3844   -0.0008 C   0  0  0  0  0  0  0  0  0  0  0  0
   -6.9058    1.4375   -0.0008 C   0  0  0  0  0  0  0  0  0  0  0  0
   -6.1679    2.6641   -0.0008 C   0  0  0  0  0  0  0  0  0  0  0  0
   -6.8810    3.8559   -0.0008 N   0  0  0  0  0  0  0  0  0  0  0  0
   -6.2214    5.0074   -0.0008 C   0  0  0  0  0  0  0  0  0  0  0  0
   -4.7886    5.0491   -0.0008 C   0  0  0  0  0  0  0  0  0  0  0  0
   -4.0630    3.9379   -0.0008 N   0  0  0  0  0  0  0  0  0  0  0  0
   -4.7056    2.7066   -0.0008 C   0  0  0  0  0  0  0  0  0  0  0  0
   -3.8973    1.5252   -0.0008 C   0  0  0  0  0  0  0  0  0  0  0  0
   -2.4651    1.5559   -0.0008 C   0  0  0  0  0  0  0  0  0  0  0  0
   -1.4847    2.5665   -0.0008 C   0  0  0  0  0  0  0  0  0  0  0  0
   -0.2124    1.9431   -0.0008 C   0  0  0  0  0  0  0  0  0  0  0  0
   -0.4328    0.5616   -0.0008 C   0  0  0  0  0  0  0  0  0  0  0  0
   -1.8037    0.3110   -0.0008 O   0  0  0  0  0  0  0  0  0  0  0  0
   -4.6360    0.2887   -0.0008 C   0  0  0  0  0  0  0  0  0  0  0  0
   -4.1479   -0.9749   -0.0008 N   0  0  0  0  0  0  0  0  0  0  0  0
   -5.3060   -1.7980   -0.0009 O   0  0  0  0  0  0  0  0  0  0  0  0
   -6.5099   -1.0437   -0.0008 N   0  0  0  0  0  0  0  0  0  0  0  0
   -6.0962    0.2462   -0.0008 C   0  0  0  0  0  0  0  0  0  0  0  0
    1.4847   -2.5665   -0.0007 C   0  0  0  0  0  0  0  0  0  0  0  0
    0.2124   -1.9431   -0.0008 C   0  0  0  0  0  0  0  0  0  0  0  0
    0.4328   -0.5616   -0.0008 C   0  0  0  0  0  0  0  0  0  0  0  0
    1.8037   -0.3110   -0.0008 O   0  0  0  0  0  0  0  0  0  0  0  0
    2.4651   -1.5559   -0.0007 C   0  0  0  0  0  0  0  0  0  0  0  0
    3.8973   -1.5252   -0.0006 C   0  0  0  0  0  0  0  0  0  0  0  0
    4.7056   -2.7066   -0.0005 C   0  0  0  0  0  0  0  0  0  0  0  0
    4.0630   -3.9379   -0.0005 N   0  0  0  0  0  0  0  0  0  0  0  0
    4.7886   -5.0491   -0.0005 C   0  0  0  0  0  0  0  0  0  0  0  0
    6.2214   -5.0074   -0.0004 C   0  0  0  0  0  0  0  0  0  0  0  0
    6.8810   -3.8559   -0.0004 N   0  0  0  0  0  0  0  0  0  0  0  0
    6.1679   -2.6641   -0.0005 C   0  0  0  0  0  0  0  0  0  0  0  0
    6.9058   -1.4375   -0.0004 C   0  0  0  0  0  0  0  0  0  0  0  0
    8.3375   -1.3844   -0.0003 C   0  0  0  0  0  0  0  0  0  0  0  0
    9.3757   -2.3352   -0.0003 C   0  0  0  0  0  0  0  0  0  0  0  0
   10.6092   -1.6380   -0.0002 C   0  0  0  0  0  0  0  0  0  0  0  0
   10.3078   -0.2720   -0.0003 C   0  0  0  0  0  0  0  0  0  0  0  0
    8.9246   -0.1026   -0.0003 O   0  0  0  0  0  0  0  0  0  0  0  0
    6.0962   -0.2462   -0.0005 C   0  0  0  0  0  0  0  0  0  0  0  0
    6.5099    1.0437   -0.0005 N   0  0  0  0  0  0  0  0  0  0  0  0
    5.3060    1.7980   -0.0006 O   0  0  0  0  0  0  0  0  0  0  0  0
    4.1479    0.9749   -0.0007 N   0  0  0  0  0  0  0  0  0  0  0  0
    4.6360   -0.2887   -0.0006 C   0  0  0  0  0  0  0  0  0  0  0  0
   12.0435    2.9612   -0.0002 C   0  0  0  0  0  0  0  0  0  0  0  0
   10.8082    2.2666   -0.0003 C   0  0  0  0  0  0  0  0  0  0  0  0
   11.1067    0.9000   -0.0002 C   0  0  0  0  0  0  0  0  0  0  0  0
   12.4896    0.7279   -0.0001 O   0  0  0  0  0  0  0  0  0  0  0  0
   13.0793    2.0082   -0.0001 C   0  0  0  0  0  0  0  0  0  0  0  0
   14.5116    2.0570    0.0000 C   0  0  0  0  0  0  0  0  0  0  0  0
   15.2536    3.2805    0.0000 C   0  0  0  0  0  0  0  0  0  0  0  0
   14.5445    4.4751   -0.0000 N   0  0  0  0  0  0  0  0  0  0  0  0
   15.2082    5.6238   -0.0000 C   0  0  0  0  0  0  0  0  0  0  0  0
   16.6418    5.6604    0.0001 C   0  0  0  0  0  0  0  0  0  0  0  0
   17.3635    4.5473    0.0002 N   0  0  0  0  0  0  0  0  0  0  0  0
   16.7163    3.3177    0.0002 C   0  0  0  0  0  0  0  0  0  0  0  0
   17.5202    2.1344    0.0003 C   0  0  0  0  0  0  0  0  0  0  0  0
   18.9538    2.1600    0.0004 C   0  0  0  0  0  0  0  0  0  0  0  0
   19.9382    3.1650    0.0004 C   0  0  0  0  0  0  0  0  0  0  0  0
   21.2086    2.5344    0.0006 C   0  0  0  0  0  0  0  0  0  0  0  0
   20.9807    1.1555    0.0007 C   0  0  0  0  0  0  0  0  0  0  0  0
   19.6090    0.9118    0.0005 O   0  0  0  0  0  0  0  0  0  0  0  0
   16.7775    0.9007    0.0002 C   0  0  0  0  0  0  0  0  0  0  0  0
   17.2612   -0.3649    0.0003 N   0  0  0  0  0  0  0  0  0  0  0  0
   16.1004   -1.1836    0.0002 O   0  0  0  0  0  0  0  0  0  0  0  0
   14.8991   -0.4256    0.0001 N   0  0  0  0  0  0  0  0  0  0  0  0
   15.3171    0.8631    0.0001 C   0  0  0  0  0  0  0  0  0  0  0  0
   22.8763   -1.9881    0.0011 C   0  0  0  0  0  0  0  0  0  0  0  0
   21.6070   -1.3539    0.0009 C   0  0  0  0  0  0  0  0  0  0  0  0
   21.8390    0.0240    0.0008 C   0  0  0  0  0  0  0  0  0  0  0  0
   23.2113    0.2637    0.0010 O   0  0  0  0  0  0  0  0  0  0  0  0
   23.8623   -0.9865    0.0012 C   0  0  0  0  0  0  0  0  0  0  0  0
   25.2983   -0.9655    0.0014 C   0  0  0  0  0  0  0  0  0  0  0  0
   26.0978   -2.1479    0.0015 C   0  0  0  0  0  0  0  0  0  0  0  0
   25.4471   -3.3771    0.0015 N   0  0  0  0  0  0  0  0  0  0  0  0
   26.1649   -4.4905    0.0017 C   0  0  0  0  0  0  0  0  0  0  0  0
   27.6017   -4.4576    0.0019 C   0  0  0  0  0  0  0  0  0  0  0  0
   28.2695   -3.3145    0.0019 N   0  0  0  0  0  0  0  0  0  0  0  0
   27.5637   -2.1129    0.0018 C   0  0  0  0  0  0  0  0  0  0  0  0
   28.3076   -0.8977    0.0018 C   0  0  0  0  0  0  0  0  0  0  0  0
   29.7519   -0.8553    0.0020 C   0  0  0  0  0  0  0  0  0  0  0  0
   30.7710   -1.8099    0.0022 C   0  0  0  0  0  0  0  0  0  0  0  0
   32.0218   -1.1088    0.0023 C   0  0  0  0  0  0  0  0  0  0  0  0
   31.7251    0.2403    0.0022 C   0  0  0  0  0  0  0  0  0  0  0  0
   30.3512    0.4225    0.0020 O   0  0  0  0  0  0  0  0  0  0  0  0
   27.5063    0.2959    0.0016 C   0  0  0  0  0  0  0  0  0  0  0  0
   27.9288    1.5854    0.0016 N   0  0  0  0  0  0  0  0  0  0  0  0
   26.7311    2.3443    0.0014 O   0  0  0  0  0  0  0  0  0  0  0  0
   25.5669    1.5323    0.0013 N   0  0  0  0  0  0  0  0  0  0  0  0
   26.0456    0.2645    0.0014 C   0  0  0  0  0  0  0  0  0  0  0  0
  -30.6095    2.8733    0.0008 H   0  0  0  0  0  0  0  0  0  0  0  0
  -33.0091    1.5464    0.0009 H   0  0  0  0  0  0  0  0  0  0  0  0
  -32.3193   -1.1402    0.0007 H   0  0  0  0  0  0  0  0  0  0  0  0
  -28.1766    5.3799    0.0006 H   0  0  0  0  0  0  0  0  0  0  0  0
  -25.6315    5.4373    0.0004 H   0  0  0  0  0  0  0  0  0  0  0  0
  -23.0881    3.0426   -0.0001 H   0  0  0  0  0  0  0  0  0  0  0  0
  -20.6327    1.8192   -0.0004 H   0  0  0  0  0  0  0  0  0  0  0  0
  -19.7232   -4.2189   -0.0006 H   0  0  0  0  0  0  0  0  0  0  0  0
  -22.1815   -3.0027   -0.0004 H   0  0  0  0  0  0  0  0  0  0  0  0
  -17.1738   -6.6078   -0.0007 H   0  0  0  0  0  0  0  0  0  0  0  0
  -14.6285   -6.5427   -0.0008 H   0  0  0  0  0  0  0  0  0  0  0  0
  -12.2037   -4.0248   -0.0008 H   0  0  0  0  0  0  0  0  0  0  0  0
   -9.8124   -2.6839   -0.0008 H   0  0  0  0  0  0  0  0  0  0  0  0
   -9.2177    3.3991   -0.0007 H   0  0  0  0  0  0  0  0  0  0  0  0
  -11.6060    2.0529   -0.0007 H   0  0  0  0  0  0  0  0  0  0  0  0
   -6.8047    5.9241   -0.0007 H   0  0  0  0  0  0  0  0  0  0  0  0
   -4.2596    5.9981   -0.0008 H   0  0  0  0  0  0  0  0  0  0  0  0
   -1.7057    3.6191   -0.0008 H   0  0  0  0  0  0  0  0  0  0  0  0
    0.7583    2.4159   -0.0008 H   0  0  0  0  0  0  0  0  0  0  0  0
    1.7057   -3.6191   -0.0007 H   0  0  0  0  0  0  0  0  0  0  0  0
   -0.7583   -2.4159   -0.0008 H   0  0  0  0  0  0  0  0  0  0  0  0
    4.2596   -5.9981   -0.0005 H   0  0  0  0  0  0  0  0  0  0  0  0
    6.8047   -5.9241   -0.0003 H   0  0  0  0  0  0  0  0  0  0  0  0
    9.2177   -3.3991   -0.0002 H   0  0  0  0  0  0  0  0  0  0  0  0
   11.6060   -2.0529   -0.0001 H   0  0  0  0  0  0  0  0  0  0  0  0
   12.2037    4.0248   -0.0002 H   0  0  0  0  0  0  0  0  0  0  0  0
    9.8124    2.6839   -0.0004 H   0  0  0  0  0  0  0  0  0  0  0  0
   14.6285    6.5427   -0.0001 H   0  0  0  0  0  0  0  0  0  0  0  0
   17.1738    6.6078    0.0001 H   0  0  0  0  0  0  0  0  0  0  0  0
   19.7232    4.2189    0.0004 H   0  0  0  0  0  0  0  0  0  0  0  0
   22.1815    3.0027    0.0007 H   0  0  0  0  0  0  0  0  0  0  0  0
   23.0881   -3.0426    0.0012 H   0  0  0  0  0  0  0  0  0  0  0  0
   20.6327   -1.8192    0.0008 H   0  0  0  0  0  0  0  0  0  0  0  0
   25.6315   -5.4373    0.0016 H   0  0  0  0  0  0  0  0  0  0  0  0
   28.1766   -5.3799    0.0020 H   0  0  0  0  0  0  0  0  0  0  0  0
   30.6095   -2.8733    0.0022 H   0  0  0  0  0  0  0  0  0  0  0  0
   33.0091   -1.5464    0.0025 H   0  0  0  0  0  0  0  0  0  0  0  0
   32.3193    1.1402    0.0022 H   0  0  0  0  0  0  0  0  0  0  0  0
  1  2  1  0
  2  3  2  0
  3  4  1  0
  4  5  1  0
  5  6  1  0
  6  7  2  0
  7  8  1  0
  8  9  2  0
  9 10  1  0
 10 11  2  0
 11 12  1  0
 12 13  2  0
 13 14  1  0
 14 15  2  0
 15 16  1  0
 16 17  2  0
 17 18  1  0
 13 19  1  0
 19 20  2  0
 20 21  1  0
 21 22  1  0
 22 23  2  0
 24 25  1  0
 25 26  2  0
 26 27  1  0
 27 28  1  0
 28 29  1  0
 29 30  2  0
 30 31  1  0
 31 32  2  0
 32 33  1  0
 33 34  2  0
 34 35  1  0
 35 36  2  0
 36 37  1  0
 37 38  2  0
 38 39  1  0
 39 40  2  0
 40 41  1  0
 36 42  1  0
 42 43  2  0
 43 44  1  0
 44 45  1  0
 45 46  2  0
 47 48  1  0
 48 49  2  0
 49 50  1  0
 50 51  1  0
 51 52  1  0
 52 53  2  0
 53 54  1  0
 54 55  2  0
 55 56  1  0
 56 57  2  0
 57 58  1  0
 58 59  2  0
 59 60  1  0
 60 61  2  0
 61 62  1  0
 62 63  2  0
 63 64  1  0
 59 65  1  0
 65 66  2  0
 66 67  1  0
 67 68  1  0
 68 69  2  0
 70 71  1  0
 71 72  2  0
 72 73  1  0
 73 74  1  0
 74 75  1  0
 75 76  2  0
 76 77  1  0
 77 78  2  0
 78 79  1  0
 79 80  2  0
 80 81  1  0
 81 82  2  0
 82 83  1  0
 83 84  2  0
 84 85  1  0
 85 86  2  0
 86 87  1  0
 82 88  1  0
 88 89  2  0
 89 90  1  0
 90 91  1  0
 91 92  2  0
 93 94  1  0
 94 95  2  0
 95 96  1  0
 96 97  1  0
 97 98  1  0
 98 99  2  0
 99100  1  0
100101  2  0
101102  1  0
102103  2  0
103104  1  0
104105  2  0
105106  1  0
106107  2  0
107108  1  0
108109  2  0
109110  1  0
105111  1  0
111112  2  0
112113  1  0
113114  1  0
114115  2  0
116117  1  0
117118  2  0
118119  1  0
119120  1  0
120121  1  0
121122  2  0
122123  1  0
123124  2  0
124125  1  0
125126  2  0
126127  1  0
127128  2  0
128129  1  0
129130  2  0
130131  1  0
131132  2  0
132133  1  0
128134  1  0
134135  2  0
135136  1  0
136137  1  0
137138  2  0
  5  1  2  0
 23  6  1  0
 28 24  2  0
 46 29  1  0
 51 47  2  0
 69 52  1  0
 74 70  2  0
 92 75  1  0
 97 93  2  0
115 98  1  0
120116  2  0
138121  1  0
 12  7  1  0
 18 14  1  0
 23 19  1  0
 35 30  1  0
 41 37  1  0
 46 42  1  0
 58 53  1  0
 64 60  1  0
 69 65  1  0
 81 76  1  0
 87 83  1  0
 92 88  1  0
104 99  1  0
110106  1  0
115111  1  0
127122  1  0
133129  1  0
138134  1  0
 17 26  1  0
 40 49  1  0
 63 72  1  0
 86 95  1  0
109118  1  0
  1139  1  0
  2140  1  0
  3141  1  0
  9142  1  0
 10143  1  0
 15144  1  0
 16145  1  0
 24146  1  0
 25147  1  0
 32148  1  0
 33149  1  0
 38150  1  0
 39151  1  0
 47152  1  0
 48153  1  0
 55154  1  0
 56155  1  0
 61156  1  0
 62157  1  0
 70158  1  0
 71159  1  0
 78160  1  0
 79161  1  0
 84162  1  0
 85163  1  0
 93164  1  0
 94165  1  0
101166  1  0
102167  1  0
107168  1  0
108169  1  0
116170  1  0
117171  1  0
124172  1  0
125173  1  0
130174  1  0
131175  1  0
132176  1  0
M  END
>  <_StereochemDone>  (19) 
1

>  <File>  (19) 
C-DAD_Hexamer/C-OOO6-UV.gjf

>  <System_Code>  (19) 
OOO

>  <Unit_Type>  (19) 
Hexamer

>  <Family>  (19) 
chalcogendiazoloquinoxaline

>  <InChIKey>  (19) 
IJMTVGQWUWZLRV-UHFFFAOYSA-N

$$$$
C-OSO6-UV
     RDKit          3D

176205  0  0  0  0  0  0  0  0999 V2000
   30.8824    4.4694    0.6364 C   0  0  0  0  0  0  0  0  0  0  0  0
   32.3016    4.5576    0.4496 C   0  0  0  0  0  0  0  0  0  0  0  0
   32.7727    3.2616    0.3772 C   0  0  0  0  0  0  0  0  0  0  0  0
   31.7258    2.3639    0.5205 O   0  0  0  0  0  0  0  0  0  0  0  0
   30.5453    3.1165    0.6893 C   0  0  0  0  0  0  0  0  0  0  0  0
   29.2727    2.4369    0.8304 C   0  0  0  0  0  0  0  0  0  0  0  0
   29.1201    1.0853    1.2393 C   0  0  0  0  0  0  0  0  0  0  0  0
   30.2480    0.4023    1.6915 N   0  0  0  0  0  0  0  0  0  0  0  0
   30.1347   -0.8687    2.0378 C   0  0  0  0  0  0  0  0  0  0  0  0
   28.8790   -1.5648    1.9480 C   0  0  0  0  0  0  0  0  0  0  0  0
   27.7697   -0.9450    1.5767 N   0  0  0  0  0  0  0  0  0  0  0  0
   27.8220    0.4043    1.2360 C   0  0  0  0  0  0  0  0  0  0  0  0
   26.6026    1.0631    0.8939 C   0  0  0  0  0  0  0  0  0  0  0  0
   25.3365    0.3751    0.8602 C   0  0  0  0  0  0  0  0  0  0  0  0
   24.9178   -0.9321    1.1685 C   0  0  0  0  0  0  0  0  0  0  0  0
   23.5227   -1.0177    0.9274 C   0  0  0  0  0  0  0  0  0  0  0  0
   23.1092    0.2365    0.4738 C   0  0  0  0  0  0  0  0  0  0  0  0
   24.2046    1.0962    0.4269 O   0  0  0  0  0  0  0  0  0  0  0  0
   26.7230    2.4736    0.5866 C   0  0  0  0  0  0  0  0  0  0  0  0
   25.6792    3.2897    0.3129 N   0  0  0  0  0  0  0  0  0  0  0  0
   26.3208    4.8975   -0.0013 S   0  0  0  0  0  0  0  0  0  0  0  0
   28.0068    4.4610    0.2422 N   0  0  0  0  0  0  0  0  0  0  0  0
   28.0488    3.1438    0.5492 C   0  0  0  0  0  0  0  0  0  0  0  0
   20.0513    1.9426   -0.6139 C   0  0  0  0  0  0  0  0  0  0  0  0
   21.4457    2.0220   -0.3770 C   0  0  0  0  0  0  0  0  0  0  0  0
   21.8511    0.7651    0.0767 C   0  0  0  0  0  0  0  0  0  0  0  0
   20.7533   -0.0926    0.1258 O   0  0  0  0  0  0  0  0  0  0  0  0
   19.6258    0.6344   -0.3063 C   0  0  0  0  0  0  0  0  0  0  0  0
   18.3256    0.0170   -0.3526 C   0  0  0  0  0  0  0  0  0  0  0  0
   18.0591   -1.3670   -0.1116 C   0  0  0  0  0  0  0  0  0  0  0  0
   19.1337   -2.2182    0.1158 N   0  0  0  0  0  0  0  0  0  0  0  0
   18.9086   -3.5011    0.3572 C   0  0  0  0  0  0  0  0  0  0  0  0
   17.5785   -4.0343    0.3972 C   0  0  0  0  0  0  0  0  0  0  0  0
   16.5220   -3.2682    0.1655 N   0  0  0  0  0  0  0  0  0  0  0  0
   16.7014   -1.9173   -0.1110 C   0  0  0  0  0  0  0  0  0  0  0  0
   15.5383   -1.1292   -0.3813 C   0  0  0  0  0  0  0  0  0  0  0  0
   14.2106   -1.6832   -0.3589 C   0  0  0  0  0  0  0  0  0  0  0  0
   13.6810   -2.9706   -0.1387 C   0  0  0  0  0  0  0  0  0  0  0  0
   12.2708   -2.8934   -0.2464 C   0  0  0  0  0  0  0  0  0  0  0  0
   11.9542   -1.5618   -0.5294 C   0  0  0  0  0  0  0  0  0  0  0  0
   13.1273   -0.8129   -0.6002 O   0  0  0  0  0  0  0  0  0  0  0  0
   15.7886    0.2648   -0.6820 C   0  0  0  0  0  0  0  0  0  0  0  0
   14.8258    1.1603   -0.9991 N   0  0  0  0  0  0  0  0  0  0  0  0
   15.6021    2.7143   -1.2771 S   0  0  0  0  0  0  0  0  0  0  0  0
   17.2350    2.1410   -0.9633 N   0  0  0  0  0  0  0  0  0  0  0  0
   17.1654    0.8258   -0.6638 C   0  0  0  0  0  0  0  0  0  0  0  0
    9.0248    0.5533   -1.1404 C   0  0  0  0  0  0  0  0  0  0  0  0
   10.4336    0.4608   -1.0424 C   0  0  0  0  0  0  0  0  0  0  0  0
   10.7328   -0.8719   -0.7460 C   0  0  0  0  0  0  0  0  0  0  0  0
    9.5528   -1.6099   -0.6624 O   0  0  0  0  0  0  0  0  0  0  0  0
    8.4817   -0.7281   -0.9109 C   0  0  0  0  0  0  0  0  0  0  0  0
    7.1216   -1.1961   -0.8791 C   0  0  0  0  0  0  0  0  0  0  0  0
    6.7229   -2.5660   -0.7772 C   0  0  0  0  0  0  0  0  0  0  0  0
    7.7081   -3.5449   -0.8044 N   0  0  0  0  0  0  0  0  0  0  0  0
    7.3623   -4.8195   -0.6947 C   0  0  0  0  0  0  0  0  0  0  0  0
    5.9932   -5.2136   -0.5391 C   0  0  0  0  0  0  0  0  0  0  0  0
    5.0147   -4.3189   -0.5328 N   0  0  0  0  0  0  0  0  0  0  0  0
    5.3193   -2.9691   -0.6662 C   0  0  0  0  0  0  0  0  0  0  0  0
    4.2344   -2.0355   -0.6882 C   0  0  0  0  0  0  0  0  0  0  0  0
    2.8633   -2.4459   -0.5461 C   0  0  0  0  0  0  0  0  0  0  0  0
    2.2160   -3.6868   -0.3765 C   0  0  0  0  0  0  0  0  0  0  0  0
    0.8230   -3.4504   -0.2831 C   0  0  0  0  0  0  0  0  0  0  0  0
    0.6336   -2.0699   -0.3969 C   0  0  0  0  0  0  0  0  0  0  0  0
    1.8691   -1.4456   -0.5576 O   0  0  0  0  0  0  0  0  0  0  0  0
    4.6113   -0.6483   -0.8632 C   0  0  0  0  0  0  0  0  0  0  0  0
    3.7312    0.3741   -0.9571 N   0  0  0  0  0  0  0  0  0  0  0  0
    4.6483    1.8625   -1.1559 S   0  0  0  0  0  0  0  0  0  0  0  0
    6.2279    1.0886   -1.1120 N   0  0  0  0  0  0  0  0  0  0  0  0
    6.0376   -0.2389   -0.9538 C   0  0  0  0  0  0  0  0  0  0  0  0
   -2.0805    0.3911   -0.4113 C   0  0  0  0  0  0  0  0  0  0  0  0
   -0.6902    0.1444   -0.5019 C   0  0  0  0  0  0  0  0  0  0  0  0
   -0.5150   -1.2371   -0.3810 C   0  0  0  0  0  0  0  0  0  0  0  0
   -1.7543   -1.8541   -0.2145 O   0  0  0  0  0  0  0  0  0  0  0  0
   -2.7375   -0.8443   -0.2287 C   0  0  0  0  0  0  0  0  0  0  0  0
   -4.1313   -1.1705   -0.0836 C   0  0  0  0  0  0  0  0  0  0  0  0
   -4.6496   -2.4723    0.2065 C   0  0  0  0  0  0  0  0  0  0  0  0
   -3.7509   -3.5068    0.4330 N   0  0  0  0  0  0  0  0  0  0  0  0
   -4.2091   -4.7231    0.6918 C   0  0  0  0  0  0  0  0  0  0  0  0
   -5.6142   -5.0004    0.7375 C   0  0  0  0  0  0  0  0  0  0  0  0
   -6.5117   -4.0434    0.5467 N   0  0  0  0  0  0  0  0  0  0  0  0
   -6.0863   -2.7456    0.2872 C   0  0  0  0  0  0  0  0  0  0  0  0
   -7.0857   -1.7361    0.1107 C   0  0  0  0  0  0  0  0  0  0  0  0
   -8.4927   -2.0272    0.1751 C   0  0  0  0  0  0  0  0  0  0  0  0
   -9.2496   -3.1924    0.4137 C   0  0  0  0  0  0  0  0  0  0  0  0
  -10.6219   -2.8501    0.3467 C   0  0  0  0  0  0  0  0  0  0  0  0
  -10.6894   -1.4821    0.0672 C   0  0  0  0  0  0  0  0  0  0  0  0
   -9.3988   -0.9677   -0.0401 O   0  0  0  0  0  0  0  0  0  0  0  0
   -6.5832   -0.4007   -0.1354 C   0  0  0  0  0  0  0  0  0  0  0  0
   -7.3671    0.6899   -0.2942 N   0  0  0  0  0  0  0  0  0  0  0  0
   -6.3186    2.0753   -0.5702 S   0  0  0  0  0  0  0  0  0  0  0  0
   -4.8156    1.1663   -0.4674 N   0  0  0  0  0  0  0  0  0  0  0  0
   -5.1250   -0.1270   -0.2327 C   0  0  0  0  0  0  0  0  0  0  0  0
  -13.1990    1.1344   -0.4658 C   0  0  0  0  0  0  0  0  0  0  0  0
  -11.8280    0.7893   -0.4009 C   0  0  0  0  0  0  0  0  0  0  0  0
  -11.7674   -0.5775   -0.1161 C   0  0  0  0  0  0  0  0  0  0  0  0
  -13.0590   -1.0905   -0.0031 O   0  0  0  0  0  0  0  0  0  0  0  0
  -13.9596   -0.0286   -0.2207 C   0  0  0  0  0  0  0  0  0  0  0  0
  -15.3817   -0.2429   -0.1593 C   0  0  0  0  0  0  0  0  0  0  0  0
  -16.0202   -1.5021    0.0717 C   0  0  0  0  0  0  0  0  0  0  0  0
  -15.2245   -2.6320    0.2141 N   0  0  0  0  0  0  0  0  0  0  0  0
  -15.7944   -3.8069    0.4372 C   0  0  0  0  0  0  0  0  0  0  0  0
  -17.2176   -3.9424    0.5395 C   0  0  0  0  0  0  0  0  0  0  0  0
  -18.0205   -2.8971    0.4017 N   0  0  0  0  0  0  0  0  0  0  0  0
  -17.4763   -1.6407    0.1578 C   0  0  0  0  0  0  0  0  0  0  0  0
  -18.3778   -0.5406    0.0048 C   0  0  0  0  0  0  0  0  0  0  0  0
  -19.8055   -0.6954    0.1063 C   0  0  0  0  0  0  0  0  0  0  0  0
  -20.6667   -1.7879    0.3265 C   0  0  0  0  0  0  0  0  0  0  0  0
  -22.0004   -1.3080    0.3241 C   0  0  0  0  0  0  0  0  0  0  0  0
  -21.9383    0.0697    0.1041 C   0  0  0  0  0  0  0  0  0  0  0  0
  -20.6071    0.4575   -0.0305 O   0  0  0  0  0  0  0  0  0  0  0  0
  -17.7559    0.7394   -0.2595 C   0  0  0  0  0  0  0  0  0  0  0  0
  -18.4381    1.8909   -0.4558 N   0  0  0  0  0  0  0  0  0  0  0  0
  -17.2671    3.1724   -0.7395 S   0  0  0  0  0  0  0  0  0  0  0  0
  -15.8526    2.1379   -0.5909 N   0  0  0  0  0  0  0  0  0  0  0  0
  -16.2779    0.8815   -0.3381 C   0  0  0  0  0  0  0  0  0  0  0  0
  -24.1833    2.9513   -0.2264 C   0  0  0  0  0  0  0  0  0  0  0  0
  -22.8526    2.4617   -0.2412 C   0  0  0  0  0  0  0  0  0  0  0  0
  -22.9244    1.0881   -0.0018 C   0  0  0  0  0  0  0  0  0  0  0  0
  -24.2567    0.7085    0.1549 O   0  0  0  0  0  0  0  0  0  0  0  0
  -25.0466    1.8660    0.0107 C   0  0  0  0  0  0  0  0  0  0  0  0
  -26.4799    1.7917    0.1454 C   0  0  0  0  0  0  0  0  0  0  0  0
  -27.2397    0.5857    0.1700 C   0  0  0  0  0  0  0  0  0  0  0  0
  -26.5856   -0.6159   -0.0841 N   0  0  0  0  0  0  0  0  0  0  0  0
  -27.2700   -1.7474   -0.0379 C   0  0  0  0  0  0  0  0  0  0  0  0
  -28.6713   -1.7681    0.2844 C   0  0  0  0  0  0  0  0  0  0  0  0
  -29.3483   -0.6518    0.4975 N   0  0  0  0  0  0  0  0  0  0  0  0
  -28.6847    0.5735    0.4272 C   0  0  0  0  0  0  0  0  0  0  0  0
  -29.4482    1.7581    0.6216 C   0  0  0  0  0  0  0  0  0  0  0  0
  -30.8643    1.7302    0.9326 C   0  0  0  0  0  0  0  0  0  0  0  0
  -31.8546    0.7470    0.8916 C   0  0  0  0  0  0  0  0  0  0  0  0
  -33.0821    1.3441    1.3312 C   0  0  0  0  0  0  0  0  0  0  0  0
  -32.7983    2.6614    1.6329 C   0  0  0  0  0  0  0  0  0  0  0  0
  -31.4582    2.9238    1.3985 O   0  0  0  0  0  0  0  0  0  0  0  0
  -28.7183    2.9963    0.4845 C   0  0  0  0  0  0  0  0  0  0  0  0
  -29.2891    4.2234    0.5297 N   0  0  0  0  0  0  0  0  0  0  0  0
  -28.0173    5.4158    0.3160 S   0  0  0  0  0  0  0  0  0  0  0  0
  -26.7128    4.2460    0.1552 N   0  0  0  0  0  0  0  0  0  0  0  0
  -27.2501    3.0111    0.2599 C   0  0  0  0  0  0  0  0  0  0  0  0
   30.1800    5.2821    0.7147 H   0  0  0  0  0  0  0  0  0  0  0  0
   32.8908    5.4595    0.3744 H   0  0  0  0  0  0  0  0  0  0  0  0
   33.7493    2.8264    0.2361 H   0  0  0  0  0  0  0  0  0  0  0  0
   31.0249   -1.3720    2.4066 H   0  0  0  0  0  0  0  0  0  0  0  0
   28.8090   -2.6198    2.2007 H   0  0  0  0  0  0  0  0  0  0  0  0
   25.5761   -1.7050    1.5220 H   0  0  0  0  0  0  0  0  0  0  0  0
   22.8790   -1.8738    1.0592 H   0  0  0  0  0  0  0  0  0  0  0  0
   19.3984    2.7237   -0.9636 H   0  0  0  0  0  0  0  0  0  0  0  0
   22.0943    2.8744   -0.5095 H   0  0  0  0  0  0  0  0  0  0  0  0
   19.7713   -4.1421    0.5202 H   0  0  0  0  0  0  0  0  0  0  0  0
   17.4039   -5.0852    0.6132 H   0  0  0  0  0  0  0  0  0  0  0  0
   14.2816   -3.8368    0.0719 H   0  0  0  0  0  0  0  0  0  0  0  0
   11.5536   -3.6926   -0.1378 H   0  0  0  0  0  0  0  0  0  0  0  0
    8.4359    1.4301   -1.3481 H   0  0  0  0  0  0  0  0  0  0  0  0
   11.1619    1.2475   -1.1672 H   0  0  0  0  0  0  0  0  0  0  0  0
    8.1554   -5.5617   -0.7334 H   0  0  0  0  0  0  0  0  0  0  0  0
    5.7219   -6.2606   -0.4306 H   0  0  0  0  0  0  0  0  0  0  0  0
    2.7310   -4.6292   -0.3311 H   0  0  0  0  0  0  0  0  0  0  0  0
    0.0353   -4.1759   -0.1491 H   0  0  0  0  0  0  0  0  0  0  0  0
   -2.5852    1.3400   -0.4697 H   0  0  0  0  0  0  0  0  0  0  0  0
    0.1048    0.8614   -0.6390 H   0  0  0  0  0  0  0  0  0  0  0  0
   -3.4796   -5.5080    0.8741 H   0  0  0  0  0  0  0  0  0  0  0  0
   -5.9799   -6.0045    0.9362 H   0  0  0  0  0  0  0  0  0  0  0  0
   -8.8171   -4.1568    0.6087 H   0  0  0  0  0  0  0  0  0  0  0  0
  -11.4742   -3.4986    0.4802 H   0  0  0  0  0  0  0  0  0  0  0  0
  -13.6248    2.1030   -0.6636 H   0  0  0  0  0  0  0  0  0  0  0  0
  -10.9735    1.4340   -0.5390 H   0  0  0  0  0  0  0  0  0  0  0  0
  -15.1434   -4.6715    0.5389 H   0  0  0  0  0  0  0  0  0  0  0  0
  -17.6747   -4.9099    0.7307 H   0  0  0  0  0  0  0  0  0  0  0  0
  -20.3286   -2.7983    0.4677 H   0  0  0  0  0  0  0  0  0  0  0  0
  -22.9081   -1.8755    0.4608 H   0  0  0  0  0  0  0  0  0  0  0  0
  -24.5114    3.9674   -0.3642 H   0  0  0  0  0  0  0  0  0  0  0  0
  -21.9417    3.0176   -0.4028 H   0  0  0  0  0  0  0  0  0  0  0  0
  -26.7374   -2.6686   -0.2604 H   0  0  0  0  0  0  0  0  0  0  0  0
  -29.2122   -2.7087    0.3524 H   0  0  0  0  0  0  0  0  0  0  0  0
  -31.6902   -0.2710    0.5868 H   0  0  0  0  0  0  0  0  0  0  0  0
  -34.0443    0.8607    1.4135 H   0  0  0  0  0  0  0  0  0  0  0  0
  -33.3834    3.4905    1.9979 H   0  0  0  0  0  0  0  0  0  0  0  0
  1  2  1  0
  2  3  2  0
  3  4  1  0
  4  5  1  0
  5  6  1  0
  6  7  2  0
  7  8  1  0
  8  9  2  0
  9 10  1  0
 10 11  2  0
 11 12  1  0
 12 13  2  0
 13 14  1  0
 14 15  2  0
 15 16  1  0
 16 17  2  0
 17 18  1  0
 13 19  1  0
 19 20  2  0
 20 21  1  0
 21 22  1  0
 22 23  2  0
 24 25  1  0
 25 26  2  0
 26 27  1  0
 27 28  1  0
 28 29  1  0
 29 30  2  0
 30 31  1  0
 31 32  2  0
 32 33  1  0
 33 34  2  0
 34 35  1  0
 35 36  2  0
 36 37  1  0
 37 38  2  0
 38 39  1  0
 39 40  2  0
 40 41  1  0
 36 42  1  0
 42 43  2  0
 43 44  1  0
 44 45  1  0
 45 46  2  0
 47 48  1  0
 48 49  2  0
 49 50  1  0
 50 51  1  0
 51 52  1  0
 52 53  2  0
 53 54  1  0
 54 55  2  0
 55 56  1  0
 56 57  2  0
 57 58  1  0
 58 59  2  0
 59 60  1  0
 60 61  2  0
 61 62  1  0
 62 63  2  0
 63 64  1  0
 59 65  1  0
 65 66  2  0
 66 67  1  0
 67 68  1  0
 68 69  2  0
 70 71  1  0
 71 72  2  0
 72 73  1  0
 73 74  1  0
 74 75  1  0
 75 76  2  0
 76 77  1  0
 77 78  2  0
 78 79  1  0
 79 80  2  0
 80 81  1  0
 81 82  2  0
 82 83  1  0
 83 84  2  0
 84 85  1  0
 85 86  2  0
 86 87  1  0
 82 88  1  0
 88 89  2  0
 89 90  1  0
 90 91  1  0
 91 92  2  0
 93 94  1  0
 94 95  2  0
 95 96  1  0
 96 97  1  0
 97 98  1  0
 98 99  2  0
 99100  1  0
100101  2  0
101102  1  0
102103  2  0
103104  1  0
104105  2  0
105106  1  0
106107  2  0
107108  1  0
108109  2  0
109110  1  0
105111  1  0
111112  2  0
112113  1  0
113114  1  0
114115  2  0
116117  1  0
117118  2  0
118119  1  0
119120  1  0
120121  1  0
121122  2  0
122123  1  0
123124  2  0
124125  1  0
125126  2  0
126127  1  0
127128  2  0
128129  1  0
129130  2  0
130131  1  0
131132  2  0
132133  1  0
128134  1  0
134135  2  0
135136  1  0
136137  1  0
137138  2  0
  5  1  2  0
 23  6  1  0
 28 24  2  0
 46 29  1  0
 51 47  2  0
 69 52  1  0
 74 70  2  0
 92 75  1  0
 97 93  2  0
115 98  1  0
120116  2  0
138121  1  0
 12  7  1  0
 18 14  1  0
 23 19  1  0
 35 30  1  0
 41 37  1  0
 46 42  1  0
 58 53  1  0
 64 60  1  0
 69 65  1  0
 81 76  1  0
 87 83  1  0
 92 88  1  0
104 99  1  0
110106  1  0
115111  1  0
127122  1  0
133129  1  0
138134  1  0
 17 26  1  0
 40 49  1  0
 63 72  1  0
 86 95  1  0
109118  1  0
  1139  1  0
  2140  1  0
  3141  1  0
  9142  1  0
 10143  1  0
 15144  1  0
 16145  1  0
 24146  1  0
 25147  1  0
 32148  1  0
 33149  1  0
 38150  1  0
 39151  1  0
 47152  1  0
 48153  1  0
 55154  1  0
 56155  1  0
 61156  1  0
 62157  1  0
 70158  1  0
 71159  1  0
 78160  1  0
 79161  1  0
 84162  1  0
 85163  1  0
 93164  1  0
 94165  1  0
101166  1  0
102167  1  0
107168  1  0
108169  1  0
116170  1  0
117171  1  0
124172  1  0
125173  1  0
130174  1  0
131175  1  0
132176  1  0
M  END
>  <_StereochemDone>  (20) 
1

>  <File>  (20) 
C-DAD_Hexamer/C-OSO6-UV.gjf

>  <System_Code>  (20) 
OSO

>  <Unit_Type>  (20) 
Hexamer

>  <Family>  (20) 
chalcogendiazoloquinoxaline

>  <InChIKey>  (20) 
ZNKQIWRHCALLDN-UHFFFAOYSA-N

$$$$
C-OSeO6-UV
     RDKit          3D

176205  0  0  0  0  0  0  0  0999 V2000
  -30.7627   -3.8554    1.8682 C   0  0  0  0  0  0  0  0  0  0  0  0
  -31.8248   -4.3536    2.6950 C   0  0  0  0  0  0  0  0  0  0  0  0
  -31.7112   -3.7142    3.9134 C   0  0  0  0  0  0  0  0  0  0  0  0
  -30.6416   -2.8319    3.8915 O   0  0  0  0  0  0  0  0  0  0  0  0
  -30.0535   -2.9139    2.6119 C   0  0  0  0  0  0  0  0  0  0  0  0
  -28.8786   -2.1155    2.3171 C   0  0  0  0  0  0  0  0  0  0  0  0
  -28.5512   -0.9086    2.9857 C   0  0  0  0  0  0  0  0  0  0  0  0
  -29.4983   -0.3549    3.8472 N   0  0  0  0  0  0  0  0  0  0  0  0
  -29.1932    0.7440    4.5157 C   0  0  0  0  0  0  0  0  0  0  0  0
  -27.9048    1.3719    4.3851 C   0  0  0  0  0  0  0  0  0  0  0  0
  -26.9968    0.9181    3.5356 N   0  0  0  0  0  0  0  0  0  0  0  0
  -27.2797   -0.2125    2.7722 C   0  0  0  0  0  0  0  0  0  0  0  0
  -26.3119   -0.6501    1.8199 C   0  0  0  0  0  0  0  0  0  0  0  0
  -25.0408    0.0137    1.6580 C   0  0  0  0  0  0  0  0  0  0  0  0
  -24.4798    1.1959    2.1739 C   0  0  0  0  0  0  0  0  0  0  0  0
  -23.1684    1.3294    1.6498 C   0  0  0  0  0  0  0  0  0  0  0  0
  -22.9445    0.2252    0.8258 C   0  0  0  0  0  0  0  0  0  0  0  0
  -24.0766   -0.5866    0.8208 O   0  0  0  0  0  0  0  0  0  0  0  0
  -26.6882   -1.8032    1.0212 C   0  0  0  0  0  0  0  0  0  0  0  0
  -25.9364   -2.2819    0.0059 N   0  0  0  0  0  0  0  0  0  0  0  0
  -26.8025   -3.7651   -0.7172 Se  0  0  0  0  0  2  0  0  0  0  0  0
  -28.2117   -3.6018    0.4894 N   0  0  0  0  0  0  0  0  0  0  0  0
  -27.9632   -2.5367    1.2842 C   0  0  0  0  0  0  0  0  0  0  0  0
  -20.3092   -1.1630   -1.3177 C   0  0  0  0  0  0  0  0  0  0  0  0
  -21.6318   -1.2780   -0.8186 C   0  0  0  0  0  0  0  0  0  0  0  0
  -21.8380   -0.1941    0.0367 C   0  0  0  0  0  0  0  0  0  0  0  0
  -20.6889    0.5936    0.0784 O   0  0  0  0  0  0  0  0  0  0  0  0
  -19.7333   -0.0020   -0.7698 C   0  0  0  0  0  0  0  0  0  0  0  0
  -18.4244    0.5846   -0.9052 C   0  0  0  0  0  0  0  0  0  0  0  0
  -18.0873    1.9099   -0.4980 C   0  0  0  0  0  0  0  0  0  0  0  0
  -19.1136    2.7608   -0.1027 N   0  0  0  0  0  0  0  0  0  0  0  0
  -18.8189    3.9846    0.3095 C   0  0  0  0  0  0  0  0  0  0  0  0
  -17.4625    4.4476    0.3722 C   0  0  0  0  0  0  0  0  0  0  0  0
  -16.4551    3.6892   -0.0357 N   0  0  0  0  0  0  0  0  0  0  0  0
  -16.7110    2.4084   -0.5143 C   0  0  0  0  0  0  0  0  0  0  0  0
  -15.6100    1.6339   -0.9974 C   0  0  0  0  0  0  0  0  0  0  0  0
  -14.2539    2.1161   -0.9429 C   0  0  0  0  0  0  0  0  0  0  0  0
  -13.6588    3.3327   -0.5531 C   0  0  0  0  0  0  0  0  0  0  0  0
  -12.2561    3.2097   -0.7065 C   0  0  0  0  0  0  0  0  0  0  0  0
  -12.0088    1.9205   -1.1850 C   0  0  0  0  0  0  0  0  0  0  0  0
  -13.2169    1.2421   -1.3334 O   0  0  0  0  0  0  0  0  0  0  0  0
  -15.9476    0.3326   -1.5461 C   0  0  0  0  0  0  0  0  0  0  0  0
  -15.0445   -0.4787   -2.1376 N   0  0  0  0  0  0  0  0  0  0  0  0
  -15.9144   -2.0340   -2.6828 Se  0  0  0  0  0  2  0  0  0  0  0  0
  -17.5430   -1.4122   -2.0243 N   0  0  0  0  0  0  0  0  0  0  0  0
  -17.3478   -0.1886   -1.4903 C   0  0  0  0  0  0  0  0  0  0  0  0
   -9.1773   -0.1892   -2.1748 C   0  0  0  0  0  0  0  0  0  0  0  0
  -10.5818   -0.0546   -2.0469 C   0  0  0  0  0  0  0  0  0  0  0  0
  -10.8219    1.2207   -1.5291 C   0  0  0  0  0  0  0  0  0  0  0  0
   -9.6101    1.8830   -1.3379 O   0  0  0  0  0  0  0  0  0  0  0  0
   -8.5791    1.0113   -1.7438 C   0  0  0  0  0  0  0  0  0  0  0  0
   -7.2024    1.4173   -1.6321 C   0  0  0  0  0  0  0  0  0  0  0  0
   -6.7700    2.7574   -1.3937 C   0  0  0  0  0  0  0  0  0  0  0  0
   -7.7165    3.7743   -1.4347 N   0  0  0  0  0  0  0  0  0  0  0  0
   -7.3427    5.0203   -1.1831 C   0  0  0  0  0  0  0  0  0  0  0  0
   -5.9847    5.3423   -0.8542 C   0  0  0  0  0  0  0  0  0  0  0  0
   -5.0386    4.4139   -0.8460 N   0  0  0  0  0  0  0  0  0  0  0  0
   -5.3686    3.0951   -1.1392 C   0  0  0  0  0  0  0  0  0  0  0  0
   -4.3163    2.1263   -1.1740 C   0  0  0  0  0  0  0  0  0  0  0  0
   -2.9521    2.4690   -0.8661 C   0  0  0  0  0  0  0  0  0  0  0  0
   -2.2887    3.6715   -0.5473 C   0  0  0  0  0  0  0  0  0  0  0  0
   -0.9206    3.3792   -0.3277 C   0  0  0  0  0  0  0  0  0  0  0  0
   -0.7617    2.0032   -0.5131 C   0  0  0  0  0  0  0  0  0  0  0  0
   -1.9914    1.4355   -0.8410 O   0  0  0  0  0  0  0  0  0  0  0  0
   -4.7125    0.7784   -1.5413 C   0  0  0  0  0  0  0  0  0  0  0  0
   -3.8324   -0.2317   -1.7104 N   0  0  0  0  0  0  0  0  0  0  0  0
   -4.7777   -1.7711   -2.1665 Se  0  0  0  0  0  2  0  0  0  0  0  0
   -6.3993   -0.8554   -2.0905 N   0  0  0  0  0  0  0  0  0  0  0  0
   -6.1498    0.4287   -1.7608 C   0  0  0  0  0  0  0  0  0  0  0  0
    1.8738   -0.5437   -0.4181 C   0  0  0  0  0  0  0  0  0  0  0  0
    0.5043   -0.2458   -0.6225 C   0  0  0  0  0  0  0  0  0  0  0  0
    0.3562    1.1312   -0.4364 C   0  0  0  0  0  0  0  0  0  0  0  0
    1.5904    1.6950   -0.1161 O   0  0  0  0  0  0  0  0  0  0  0  0
    2.5418    0.6545   -0.0970 C   0  0  0  0  0  0  0  0  0  0  0  0
    3.9244    0.9408    0.1841 C   0  0  0  0  0  0  0  0  0  0  0  0
    4.4018    2.1698    0.7331 C   0  0  0  0  0  0  0  0  0  0  0  0
    3.4706    3.1016    1.1757 N   0  0  0  0  0  0  0  0  0  0  0  0
    3.8914    4.2608    1.6602 C   0  0  0  0  0  0  0  0  0  0  0  0
    5.2872    4.5825    1.7255 C   0  0  0  0  0  0  0  0  0  0  0  0
    6.2141    3.7103    1.3549 N   0  0  0  0  0  0  0  0  0  0  0  0
    5.8289    2.4642    0.8718 C   0  0  0  0  0  0  0  0  0  0  0  0
    6.8532    1.5275    0.5259 C   0  0  0  0  0  0  0  0  0  0  0  0
    8.2521    1.8576    0.6137 C   0  0  0  0  0  0  0  0  0  0  0  0
    8.9719    2.9719    1.0901 C   0  0  0  0  0  0  0  0  0  0  0  0
   10.3534    2.7210    0.9028 C   0  0  0  0  0  0  0  0  0  0  0  0
   10.4632    1.4597    0.3115 C   0  0  0  0  0  0  0  0  0  0  0  0
    9.1907    0.9218    0.1295 O   0  0  0  0  0  0  0  0  0  0  0  0
    6.3923    0.2237    0.0836 C   0  0  0  0  0  0  0  0  0  0  0  0
    7.2264   -0.8031   -0.1871 N   0  0  0  0  0  0  0  0  0  0  0  0
    6.2077   -2.2688   -0.7206 Se  0  0  0  0  0  2  0  0  0  0  0  0
    4.6256   -1.3054   -0.5131 N   0  0  0  0  0  0  0  0  0  0  0  0
    4.9351   -0.0614   -0.0923 C   0  0  0  0  0  0  0  0  0  0  0  0
   13.0401   -0.8479   -0.9021 C   0  0  0  0  0  0  0  0  0  0  0  0
   11.6613   -0.5867   -0.7110 C   0  0  0  0  0  0  0  0  0  0  0  0
   11.5661    0.6728   -0.1139 C   0  0  0  0  0  0  0  0  0  0  0  0
   12.8428    1.2025    0.0669 O   0  0  0  0  0  0  0  0  0  0  0  0
   13.7689    0.2611   -0.4279 C   0  0  0  0  0  0  0  0  0  0  0  0
   15.1834    0.5250   -0.3613 C   0  0  0  0  0  0  0  0  0  0  0  0
   15.7606    1.7921   -0.0438 C   0  0  0  0  0  0  0  0  0  0  0  0
   14.9170    2.8891    0.0887 N   0  0  0  0  0  0  0  0  0  0  0  0
   15.4282    4.0675    0.4117 C   0  0  0  0  0  0  0  0  0  0  0  0
   16.8338    4.2367    0.6414 C   0  0  0  0  0  0  0  0  0  0  0  0
   17.6829    3.2310    0.4890 N   0  0  0  0  0  0  0  0  0  0  0  0
   17.2040    1.9782    0.1187 C   0  0  0  0  0  0  0  0  0  0  0  0
   18.1522    0.9271   -0.0802 C   0  0  0  0  0  0  0  0  0  0  0  0
   19.5663    1.1254    0.1167 C   0  0  0  0  0  0  0  0  0  0  0  0
   20.3718    2.2452    0.4008 C   0  0  0  0  0  0  0  0  0  0  0  0
   21.7206    1.8145    0.4743 C   0  0  0  0  0  0  0  0  0  0  0  0
   21.7226    0.4383    0.2400 C   0  0  0  0  0  0  0  0  0  0  0  0
   20.4172    0.0037    0.0218 O   0  0  0  0  0  0  0  0  0  0  0  0
   17.6008   -0.3481   -0.5004 C   0  0  0  0  0  0  0  0  0  0  0  0
   18.3644   -1.4208   -0.8019 N   0  0  0  0  0  0  0  0  0  0  0  0
   17.2434   -2.8279   -1.2849 Se  0  0  0  0  0  2  0  0  0  0  0  0
   15.7295   -1.7738   -1.0264 N   0  0  0  0  0  0  0  0  0  0  0  0
   16.1244   -0.5453   -0.6326 C   0  0  0  0  0  0  0  0  0  0  0  0
   24.0872   -2.3574    0.0057 C   0  0  0  0  0  0  0  0  0  0  0  0
   22.7425   -1.9137   -0.0822 C   0  0  0  0  0  0  0  0  0  0  0  0
   22.7504   -0.5431    0.1816 C   0  0  0  0  0  0  0  0  0  0  0  0
   24.0564   -0.1208    0.4235 O   0  0  0  0  0  0  0  0  0  0  0  0
   24.8953   -1.2475    0.3075 C   0  0  0  0  0  0  0  0  0  0  0  0
   26.3148   -1.1163    0.5288 C   0  0  0  0  0  0  0  0  0  0  0  0
   27.0186    0.1214    0.5435 C   0  0  0  0  0  0  0  0  0  0  0  0
   26.3416    1.2770    0.1627 N   0  0  0  0  0  0  0  0  0  0  0  0
   26.9720    2.4392    0.2087 C   0  0  0  0  0  0  0  0  0  0  0  0
   28.3341    2.5414    0.6618 C   0  0  0  0  0  0  0  0  0  0  0  0
   29.0369    1.4696    0.9884 N   0  0  0  0  0  0  0  0  0  0  0  0
   28.4350    0.2122    0.9152 C   0  0  0  0  0  0  0  0  0  0  0  0
   29.2255   -0.9272    1.2215 C   0  0  0  0  0  0  0  0  0  0  0  0
   30.6067   -0.8189    1.6550 C   0  0  0  0  0  0  0  0  0  0  0  0
   31.5770    0.1794    1.5729 C   0  0  0  0  0  0  0  0  0  0  0  0
   32.7693   -0.3168    2.1982 C   0  0  0  0  0  0  0  0  0  0  0  0
   32.4813   -1.5896    2.6492 C   0  0  0  0  0  0  0  0  0  0  0  0
   31.1741   -1.9216    2.3310 O   0  0  0  0  0  0  0  0  0  0  0  0
   28.5731   -2.2089    1.0706 C   0  0  0  0  0  0  0  0  0  0  0  0
   29.2276   -3.3859    1.1929 N   0  0  0  0  0  0  0  0  0  0  0  0
   28.0054   -4.7640    0.9293 Se  0  0  0  0  0  2  0  0  0  0  0  0
   26.6199   -3.5519    0.6367 N   0  0  0  0  0  0  0  0  0  0  0  0
   27.1197   -2.3028    0.7430 C   0  0  0  0  0  0  0  0  0  0  0  0
  -30.5267   -4.1449    0.8581 H   0  0  0  0  0  0  0  0  0  0  0  0
  -32.5677   -5.0889    2.4234 H   0  0  0  0  0  0  0  0  0  0  0  0
  -32.2622   -3.7630    4.8392 H   0  0  0  0  0  0  0  0  0  0  0  0
  -29.9562    1.1689    5.1631 H   0  0  0  0  0  0  0  0  0  0  0  0
  -27.6527    2.2503    4.9740 H   0  0  0  0  0  0  0  0  0  0  0  0
  -24.9906    1.8566    2.8507 H   0  0  0  0  0  0  0  0  0  0  0  0
  -22.4603    2.1231    1.8327 H   0  0  0  0  0  0  0  0  0  0  0  0
  -19.8000   -1.8283   -1.9936 H   0  0  0  0  0  0  0  0  0  0  0  0
  -22.3610   -2.0421   -1.0404 H   0  0  0  0  0  0  0  0  0  0  0  0
  -19.6439    4.6345    0.5900 H   0  0  0  0  0  0  0  0  0  0  0  0
  -17.2286    5.4417    0.7447 H   0  0  0  0  0  0  0  0  0  0  0  0
  -14.2129    4.1847   -0.2033 H   0  0  0  0  0  0  0  0  0  0  0  0
  -11.5000    3.9530   -0.5048 H   0  0  0  0  0  0  0  0  0  0  0  0
   -8.6270   -1.0432   -2.5302 H   0  0  0  0  0  0  0  0  0  0  0  0
  -11.3442   -0.7772   -2.2947 H   0  0  0  0  0  0  0  0  0  0  0  0
   -8.1013    5.7964   -1.2446 H   0  0  0  0  0  0  0  0  0  0  0  0
   -5.6943    6.3624   -0.6158 H   0  0  0  0  0  0  0  0  0  0  0  0
   -2.7775    4.6269   -0.4900 H   0  0  0  0  0  0  0  0  0  0  0  0
   -0.1307    4.0661   -0.0653 H   0  0  0  0  0  0  0  0  0  0  0  0
    2.3577   -1.5023   -0.4908 H   0  0  0  0  0  0  0  0  0  0  0  0
   -0.2936   -0.9267   -0.8765 H   0  0  0  0  0  0  0  0  0  0  0  0
    3.1400    4.9601    2.0180 H   0  0  0  0  0  0  0  0  0  0  0  0
    5.6211    5.5493    2.0937 H   0  0  0  0  0  0  0  0  0  0  0  0
    8.5106    3.8453    1.5139 H   0  0  0  0  0  0  0  0  0  0  0  0
   11.1834    3.3627    1.1560 H   0  0  0  0  0  0  0  0  0  0  0  0
   13.4910   -1.7281   -1.3265 H   0  0  0  0  0  0  0  0  0  0  0  0
   10.8236   -1.2181   -0.9647 H   0  0  0  0  0  0  0  0  0  0  0  0
   14.7449    4.9094    0.4895 H   0  0  0  0  0  0  0  0  0  0  0  0
   17.2394    5.2009    0.9375 H   0  0  0  0  0  0  0  0  0  0  0  0
   19.9887    3.2406    0.5333 H   0  0  0  0  0  0  0  0  0  0  0  0
   22.5967    2.4142    0.6682 H   0  0  0  0  0  0  0  0  0  0  0  0
   24.4602   -3.3588   -0.1245 H   0  0  0  0  0  0  0  0  0  0  0  0
   21.8634   -2.4975   -0.3085 H   0  0  0  0  0  0  0  0  0  0  0  0
   26.4274    3.3217   -0.1175 H   0  0  0  0  0  0  0  0  0  0  0  0
   28.8235    3.5094    0.7367 H   0  0  0  0  0  0  0  0  0  0  0  0
   31.4243    1.1446    1.1235 H   0  0  0  0  0  0  0  0  0  0  0  0
   33.7110    0.2019    2.3006 H   0  0  0  0  0  0  0  0  0  0  0  0
   33.0439   -2.3438    3.1760 H   0  0  0  0  0  0  0  0  0  0  0  0
  1  2  1  0
  2  3  2  0
  3  4  1  0
  4  5  1  0
  5  6  1  0
  6  7  2  0
  7  8  1  0
  8  9  2  0
  9 10  1  0
 10 11  2  0
 11 12  1  0
 12 13  2  0
 13 14  1  0
 14 15  2  0
 15 16  1  0
 16 17  2  0
 17 18  1  0
 13 19  1  0
 19 20  2  0
 20 21  1  0
 21 22  1  0
 22 23  2  0
 24 25  1  0
 25 26  2  0
 26 27  1  0
 27 28  1  0
 28 29  1  0
 29 30  2  0
 30 31  1  0
 31 32  2  0
 32 33  1  0
 33 34  2  0
 34 35  1  0
 35 36  2  0
 36 37  1  0
 37 38  2  0
 38 39  1  0
 39 40  2  0
 40 41  1  0
 36 42  1  0
 42 43  2  0
 43 44  1  0
 44 45  1  0
 45 46  2  0
 47 48  1  0
 48 49  2  0
 49 50  1  0
 50 51  1  0
 51 52  1  0
 52 53  2  0
 53 54  1  0
 54 55  2  0
 55 56  1  0
 56 57  2  0
 57 58  1  0
 58 59  2  0
 59 60  1  0
 60 61  2  0
 61 62  1  0
 62 63  2  0
 63 64  1  0
 59 65  1  0
 65 66  2  0
 66 67  1  0
 67 68  1  0
 68 69  2  0
 70 71  1  0
 71 72  2  0
 72 73  1  0
 73 74  1  0
 74 75  1  0
 75 76  2  0
 76 77  1  0
 77 78  2  0
 78 79  1  0
 79 80  2  0
 80 81  1  0
 81 82  2  0
 82 83  1  0
 83 84  2  0
 84 85  1  0
 85 86  2  0
 86 87  1  0
 82 88  1  0
 88 89  2  0
 89 90  1  0
 90 91  1  0
 91 92  2  0
 93 94  1  0
 94 95  2  0
 95 96  1  0
 96 97  1  0
 97 98  1  0
 98 99  2  0
 99100  1  0
100101  2  0
101102  1  0
102103  2  0
103104  1  0
104105  2  0
105106  1  0
106107  2  0
107108  1  0
108109  2  0
109110  1  0
105111  1  0
111112  2  0
112113  1  0
113114  1  0
114115  2  0
116117  1  0
117118  2  0
118119  1  0
119120  1  0
120121  1  0
121122  2  0
122123  1  0
123124  2  0
124125  1  0
125126  2  0
126127  1  0
127128  2  0
128129  1  0
129130  2  0
130131  1  0
131132  2  0
132133  1  0
128134  1  0
134135  2  0
135136  1  0
136137  1  0
137138  2  0
  5  1  2  0
 23  6  1  0
 28 24  2  0
 46 29  1  0
 51 47  2  0
 69 52  1  0
 74 70  2  0
 92 75  1  0
 97 93  2  0
115 98  1  0
120116  2  0
138121  1  0
 12  7  1  0
 18 14  1  0
 23 19  1  0
 35 30  1  0
 41 37  1  0
 46 42  1  0
 58 53  1  0
 64 60  1  0
 69 65  1  0
 81 76  1  0
 87 83  1  0
 92 88  1  0
104 99  1  0
110106  1  0
115111  1  0
127122  1  0
133129  1  0
138134  1  0
 17 26  1  0
 40 49  1  0
 63 72  1  0
 86 95  1  0
109118  1  0
  1139  1  0
  2140  1  0
  3141  1  0
  9142  1  0
 10143  1  0
 15144  1  0
 16145  1  0
 24146  1  0
 25147  1  0
 32148  1  0
 33149  1  0
 38150  1  0
 39151  1  0
 47152  1  0
 48153  1  0
 55154  1  0
 56155  1  0
 61156  1  0
 62157  1  0
 70158  1  0
 71159  1  0
 78160  1  0
 79161  1  0
 84162  1  0
 85163  1  0
 93164  1  0
 94165  1  0
101166  1  0
102167  1  0
107168  1  0
108169  1  0
116170  1  0
117171  1  0
124172  1  0
125173  1  0
130174  1  0
131175  1  0
132176  1  0
M  END
>  <_StereochemDone>  (21) 
1

>  <File>  (21) 
C-DAD_Hexamer/C-OSeO6-UV.gjf

>  <System_Code>  (21) 
OSeO

>  <Unit_Type>  (21) 
Hexamer

>  <Family>  (21) 
chalcogendiazoloquinoxaline

>  <InChIKey>  (21) 
ZUHYUJVLXIDYSG-UHFFFAOYSA-N

$$$$
C-OTeO6-UV
     RDKit          3D

176205  0  0  0  0  0  0  0  0999 V2000
   31.8333   -2.1019    0.0004 C   0  0  0  0  0  0  0  0  0  0  0  0
   33.2636   -2.0203   -0.0004 C   0  0  0  0  0  0  0  0  0  0  0  0
   33.5814   -0.6774   -0.0013 C   0  0  0  0  0  0  0  0  0  0  0  0
   32.4265    0.0878   -0.0011 O   0  0  0  0  0  0  0  0  0  0  0  0
   31.3247   -0.7974   -0.0000 C   0  0  0  0  0  0  0  0  0  0  0  0
   29.9628   -0.2854    0.0003 C   0  0  0  0  0  0  0  0  0  0  0  0
   29.6143    1.0941    0.0004 C   0  0  0  0  0  0  0  0  0  0  0  0
   30.6408    2.0372    0.0006 N   0  0  0  0  0  0  0  0  0  0  0  0
   30.3465    3.3249    0.0007 C   0  0  0  0  0  0  0  0  0  0  0  0
   28.9852    3.7837    0.0005 C   0  0  0  0  0  0  0  0  0  0  0  0
   27.9739    2.9308    0.0004 N   0  0  0  0  0  0  0  0  0  0  0  0
   28.2228    1.5603    0.0004 C   0  0  0  0  0  0  0  0  0  0  0  0
   27.1038    0.6752    0.0005 C   0  0  0  0  0  0  0  0  0  0  0  0
   25.7450    1.1672    0.0004 C   0  0  0  0  0  0  0  0  0  0  0  0
   25.1738    2.4563    0.0004 C   0  0  0  0  0  0  0  0  0  0  0  0
   23.7640    2.3204    0.0003 C   0  0  0  0  0  0  0  0  0  0  0  0
   23.4874    0.9518    0.0003 C   0  0  0  0  0  0  0  0  0  0  0  0
   24.6830    0.2365    0.0003 O   0  0  0  0  0  0  0  0  0  0  0  0
   27.4171   -0.7482    0.0006 C   0  0  0  0  0  0  0  0  0  0  0  0
   26.4520   -1.6877    0.0008 N   0  0  0  0  0  0  0  0  0  0  0  0
   27.2922   -3.5175    0.0009 Te  0  0  0  0  0  2  0  0  0  0  0  0
   29.0570   -2.5559    0.0006 N   0  0  0  0  0  0  0  0  0  0  0  0
   28.8511   -1.2232    0.0005 C   0  0  0  0  0  0  0  0  0  0  0  0
   20.5846   -1.2880    0.0001 C   0  0  0  0  0  0  0  0  0  0  0  0
   21.9950   -1.1604    0.0001 C   0  0  0  0  0  0  0  0  0  0  0  0
   22.2780    0.2069    0.0002 C   0  0  0  0  0  0  0  0  0  0  0  0
   21.0868    0.9303    0.0001 O   0  0  0  0  0  0  0  0  0  0  0  0
   20.0204    0.0056    0.0000 C   0  0  0  0  0  0  0  0  0  0  0  0
   18.6511    0.4604   -0.0000 C   0  0  0  0  0  0  0  0  0  0  0  0
   18.2509    1.8328   -0.0000 C   0  0  0  0  0  0  0  0  0  0  0  0
   19.2383    2.8112    0.0000 N   0  0  0  0  0  0  0  0  0  0  0  0
   18.8950    4.0901   -0.0000 C   0  0  0  0  0  0  0  0  0  0  0  0
   17.5209    4.4945   -0.0001 C   0  0  0  0  0  0  0  0  0  0  0  0
   16.5428    3.6007   -0.0001 N   0  0  0  0  0  0  0  0  0  0  0  0
   16.8448    2.2433   -0.0001 C   0  0  0  0  0  0  0  0  0  0  0  0
   15.7578    1.3127   -0.0001 C   0  0  0  0  0  0  0  0  0  0  0  0
   14.3849    1.7535   -0.0002 C   0  0  0  0  0  0  0  0  0  0  0  0
   13.7663    3.0233   -0.0002 C   0  0  0  0  0  0  0  0  0  0  0  0
   12.3644    2.8377   -0.0003 C   0  0  0  0  0  0  0  0  0  0  0  0
   12.1355    1.4587   -0.0003 C   0  0  0  0  0  0  0  0  0  0  0  0
   13.3558    0.7859   -0.0002 O   0  0  0  0  0  0  0  0  0  0  0  0
   16.1230   -0.0980   -0.0001 C   0  0  0  0  0  0  0  0  0  0  0  0
   15.1933   -1.0719   -0.0002 N   0  0  0  0  0  0  0  0  0  0  0  0
   16.0974   -2.8718   -0.0002 Te  0  0  0  0  0  2  0  0  0  0  0  0
   17.8271   -1.8432   -0.0001 N   0  0  0  0  0  0  0  0  0  0  0  0
   17.5731   -0.5211   -0.0001 C   0  0  0  0  0  0  0  0  0  0  0  0
    9.3050   -0.8695   -0.0004 C   0  0  0  0  0  0  0  0  0  0  0  0
   10.7098   -0.6998   -0.0004 C   0  0  0  0  0  0  0  0  0  0  0  0
   10.9523    0.6767   -0.0003 C   0  0  0  0  0  0  0  0  0  0  0  0
    9.7391    1.3636   -0.0004 O   0  0  0  0  0  0  0  0  0  0  0  0
    8.7012    0.4076   -0.0004 C   0  0  0  0  0  0  0  0  0  0  0  0
    7.3201    0.8206   -0.0005 C   0  0  0  0  0  0  0  0  0  0  0  0
    6.8797    2.1817   -0.0005 C   0  0  0  0  0  0  0  0  0  0  0  0
    7.8375    3.1882   -0.0005 N   0  0  0  0  0  0  0  0  0  0  0  0
    7.4568    4.4570   -0.0005 C   0  0  0  0  0  0  0  0  0  0  0  0
    6.0720    4.8205   -0.0005 C   0  0  0  0  0  0  0  0  0  0  0  0
    5.1206    3.8978   -0.0005 N   0  0  0  0  0  0  0  0  0  0  0  0
    5.4625    2.5503   -0.0005 C   0  0  0  0  0  0  0  0  0  0  0  0
    4.4031    1.5873   -0.0005 C   0  0  0  0  0  0  0  0  0  0  0  0
    3.0184    1.9874   -0.0005 C   0  0  0  0  0  0  0  0  0  0  0  0
    2.3629    3.2390   -0.0005 C   0  0  0  0  0  0  0  0  0  0  0  0
    0.9674    3.0129   -0.0005 C   0  0  0  0  0  0  0  0  0  0  0  0
    0.7785    1.6275   -0.0004 C   0  0  0  0  0  0  0  0  0  0  0  0
    2.0178    0.9903   -0.0004 O   0  0  0  0  0  0  0  0  0  0  0  0
    4.8097    0.1879   -0.0005 C   0  0  0  0  0  0  0  0  0  0  0  0
    3.9089   -0.8126   -0.0005 N   0  0  0  0  0  0  0  0  0  0  0  0
    4.8646   -2.5855   -0.0005 Te  0  0  0  0  0  2  0  0  0  0  0  0
    6.5641   -1.5065   -0.0004 N   0  0  0  0  0  0  0  0  0  0  0  0
    6.2716   -0.1927   -0.0005 C   0  0  0  0  0  0  0  0  0  0  0  0
   -1.9867   -0.7776   -0.0003 C   0  0  0  0  0  0  0  0  0  0  0  0
   -0.5873   -0.5699   -0.0003 C   0  0  0  0  0  0  0  0  0  0  0  0
   -0.3821    0.8128   -0.0004 C   0  0  0  0  0  0  0  0  0  0  0  0
   -1.6135    1.4664   -0.0004 O   0  0  0  0  0  0  0  0  0  0  0  0
   -2.6251    0.4828   -0.0003 C   0  0  0  0  0  0  0  0  0  0  0  0
   -4.0166    0.8586   -0.0003 C   0  0  0  0  0  0  0  0  0  0  0  0
   -4.4932    2.2076   -0.0003 C   0  0  0  0  0  0  0  0  0  0  0  0
   -3.5626    3.2393   -0.0004 N   0  0  0  0  0  0  0  0  0  0  0  0
   -3.9770    4.4975   -0.0004 C   0  0  0  0  0  0  0  0  0  0  0  0
   -5.3709    4.8239   -0.0003 C   0  0  0  0  0  0  0  0  0  0  0  0
   -6.2975    3.8762   -0.0003 N   0  0  0  0  0  0  0  0  0  0  0  0
   -5.9197    2.5383   -0.0003 C   0  0  0  0  0  0  0  0  0  0  0  0
   -6.9529    1.5475   -0.0003 C   0  0  0  0  0  0  0  0  0  0  0  0
   -8.3480    1.9106   -0.0002 C   0  0  0  0  0  0  0  0  0  0  0  0
   -9.0371    3.1437   -0.0002 C   0  0  0  0  0  0  0  0  0  0  0  0
  -10.4262    2.8797   -0.0001 C   0  0  0  0  0  0  0  0  0  0  0  0
  -10.5773    1.4899   -0.0001 C   0  0  0  0  0  0  0  0  0  0  0  0
   -9.3211    0.8868   -0.0002 O   0  0  0  0  0  0  0  0  0  0  0  0
   -6.5093    0.1595   -0.0003 C   0  0  0  0  0  0  0  0  0  0  0  0
   -7.3831   -0.8648   -0.0002 N   0  0  0  0  0  0  0  0  0  0  0  0
   -6.3808   -2.6116   -0.0003 Te  0  0  0  0  0  2  0  0  0  0  0  0
   -4.7105   -1.4878   -0.0003 N   0  0  0  0  0  0  0  0  0  0  0  0
   -5.0378   -0.1823   -0.0003 C   0  0  0  0  0  0  0  0  0  0  0  0
  -13.2729   -0.9933    0.0001 C   0  0  0  0  0  0  0  0  0  0  0  0
  -11.8797   -0.7454    0.0000 C   0  0  0  0  0  0  0  0  0  0  0  0
  -11.7146    0.6425   -0.0000 C   0  0  0  0  0  0  0  0  0  0  0  0
  -12.9643    1.2602    0.0000 O   0  0  0  0  0  0  0  0  0  0  0  0
  -13.9470    0.2478    0.0001 C   0  0  0  0  0  0  0  0  0  0  0  0
  -15.3492    0.5837    0.0002 C   0  0  0  0  0  0  0  0  0  0  0  0
  -15.8647    1.9176    0.0003 C   0  0  0  0  0  0  0  0  0  0  0  0
  -14.9644    2.9763    0.0003 N   0  0  0  0  0  0  0  0  0  0  0  0
  -15.4152    4.2215    0.0004 C   0  0  0  0  0  0  0  0  0  0  0  0
  -16.8188    4.5074    0.0004 C   0  0  0  0  0  0  0  0  0  0  0  0
  -17.7174    3.5339    0.0004 N   0  0  0  0  0  0  0  0  0  0  0  0
  -17.3007    2.2068    0.0003 C   0  0  0  0  0  0  0  0  0  0  0  0
  -18.3043    1.1876    0.0003 C   0  0  0  0  0  0  0  0  0  0  0  0
  -19.7107    1.5106    0.0004 C   0  0  0  0  0  0  0  0  0  0  0  0
  -20.4360    2.7212    0.0005 C   0  0  0  0  0  0  0  0  0  0  0  0
  -21.8179    2.4143    0.0005 C   0  0  0  0  0  0  0  0  0  0  0  0
  -21.9258    1.0218    0.0003 C   0  0  0  0  0  0  0  0  0  0  0  0
  -20.6519    0.4576    0.0003 O   0  0  0  0  0  0  0  0  0  0  0  0
  -17.8209   -0.1868    0.0003 C   0  0  0  0  0  0  0  0  0  0  0  0
  -18.6645   -1.2363    0.0003 N   0  0  0  0  0  0  0  0  0  0  0  0
  -17.6120   -2.9529    0.0002 Te  0  0  0  0  0  2  0  0  0  0  0  0
  -15.9752   -1.7815    0.0002 N   0  0  0  0  0  0  0  0  0  0  0  0
  -16.3401   -0.4860    0.0002 C   0  0  0  0  0  0  0  0  0  0  0  0
  -24.5342   -1.5551    0.0002 C   0  0  0  0  0  0  0  0  0  0  0  0
  -23.1490   -1.2568    0.0002 C   0  0  0  0  0  0  0  0  0  0  0  0
  -23.0350    0.1346    0.0003 C   0  0  0  0  0  0  0  0  0  0  0  0
  -24.3057    0.7071    0.0004 O   0  0  0  0  0  0  0  0  0  0  0  0
  -25.2507   -0.3407    0.0003 C   0  0  0  0  0  0  0  0  0  0  0  0
  -26.6670   -0.0549    0.0004 C   0  0  0  0  0  0  0  0  0  0  0  0
  -27.2320    1.2542    0.0006 C   0  0  0  0  0  0  0  0  0  0  0  0
  -26.3722    2.3485    0.0010 N   0  0  0  0  0  0  0  0  0  0  0  0
  -26.8706    3.5732    0.0012 C   0  0  0  0  0  0  0  0  0  0  0  0
  -28.2878    3.8058    0.0011 C   0  0  0  0  0  0  0  0  0  0  0  0
  -29.1491    2.8030    0.0008 N   0  0  0  0  0  0  0  0  0  0  0  0
  -28.6818    1.4879    0.0006 C   0  0  0  0  0  0  0  0  0  0  0  0
  -29.6427    0.4381    0.0002 C   0  0  0  0  0  0  0  0  0  0  0  0
  -31.0725    0.7096    0.0001 C   0  0  0  0  0  0  0  0  0  0  0  0
  -31.8377    1.8818    0.0006 C   0  0  0  0  0  0  0  0  0  0  0  0
  -33.2210    1.5085    0.0000 C   0  0  0  0  0  0  0  0  0  0  0  0
  -33.2588    0.1289   -0.0008 C   0  0  0  0  0  0  0  0  0  0  0  0
  -31.9711   -0.3819   -0.0008 O   0  0  0  0  0  0  0  0  0  0  0  0
  -29.1084   -0.9143    0.0001 C   0  0  0  0  0  0  0  0  0  0  0  0
  -29.9139   -1.9956   -0.0000 N   0  0  0  0  0  0  0  0  0  0  0  0
  -28.8004   -3.6695   -0.0002 Te  0  0  0  0  0  2  0  0  0  0  0  0
  -27.2065   -2.4416    0.0000 N   0  0  0  0  0  0  0  0  0  0  0  0
  -27.6182   -1.1601    0.0001 C   0  0  0  0  0  0  0  0  0  0  0  0
   31.2230   -2.9873    0.0011 H   0  0  0  0  0  0  0  0  0  0  0  0
   33.9596   -2.8462   -0.0003 H   0  0  0  0  0  0  0  0  0  0  0  0
   34.5083   -0.1260   -0.0020 H   0  0  0  0  0  0  0  0  0  0  0  0
   31.1736    4.0309    0.0009 H   0  0  0  0  0  0  0  0  0  0  0  0
   28.7533    4.8460    0.0005 H   0  0  0  0  0  0  0  0  0  0  0  0
   25.7490    3.3637    0.0004 H   0  0  0  0  0  0  0  0  0  0  0  0
   23.0217    3.1038    0.0003 H   0  0  0  0  0  0  0  0  0  0  0  0
   20.0014   -2.1916    0.0000 H   0  0  0  0  0  0  0  0  0  0  0  0
   22.7335   -1.9474    0.0002 H   0  0  0  0  0  0  0  0  0  0  0  0
   19.6942    4.8271    0.0000 H   0  0  0  0  0  0  0  0  0  0  0  0
   17.2460    5.5464   -0.0001 H   0  0  0  0  0  0  0  0  0  0  0  0
   14.3092    3.9503   -0.0002 H   0  0  0  0  0  0  0  0  0  0  0  0
   11.5942    3.5938   -0.0003 H   0  0  0  0  0  0  0  0  0  0  0  0
    8.7490   -1.7900   -0.0004 H   0  0  0  0  0  0  0  0  0  0  0  0
   11.4714   -1.4643   -0.0003 H   0  0  0  0  0  0  0  0  0  0  0  0
    8.2342    5.2170   -0.0006 H   0  0  0  0  0  0  0  0  0  0  0  0
    5.7658    5.8636   -0.0006 H   0  0  0  0  0  0  0  0  0  0  0  0
    2.8786    4.1814   -0.0005 H   0  0  0  0  0  0  0  0  0  0  0  0
    0.1756    3.7462   -0.0005 H   0  0  0  0  0  0  0  0  0  0  0  0
   -2.5174   -1.7130   -0.0003 H   0  0  0  0  0  0  0  0  0  0  0  0
    0.1947   -1.3137   -0.0003 H   0  0  0  0  0  0  0  0  0  0  0  0
   -3.2201    5.2780   -0.0004 H   0  0  0  0  0  0  0  0  0  0  0  0
   -5.7049    5.8585   -0.0004 H   0  0  0  0  0  0  0  0  0  0  0  0
   -8.5473    4.0999   -0.0003 H   0  0  0  0  0  0  0  0  0  0  0  0
  -11.2375    3.5914   -0.0001 H   0  0  0  0  0  0  0  0  0  0  0  0
  -13.7760   -1.9439    0.0002 H   0  0  0  0  0  0  0  0  0  0  0  0
  -11.0767   -1.4663   -0.0000 H   0  0  0  0  0  0  0  0  0  0  0  0
  -14.6816    5.0238    0.0005 H   0  0  0  0  0  0  0  0  0  0  0  0
  -17.1822    5.5320    0.0005 H   0  0  0  0  0  0  0  0  0  0  0  0
  -19.9761    3.6921    0.0005 H   0  0  0  0  0  0  0  0  0  0  0  0
  -22.6503    3.1013    0.0005 H   0  0  0  0  0  0  0  0  0  0  0  0
  -25.0024   -2.5233    0.0001 H   0  0  0  0  0  0  0  0  0  0  0  0
  -22.3205   -1.9483    0.0001 H   0  0  0  0  0  0  0  0  0  0  0  0
  -26.1696    4.4044    0.0015 H   0  0  0  0  0  0  0  0  0  0  0  0
  -28.6872    4.8173    0.0012 H   0  0  0  0  0  0  0  0  0  0  0  0
  -31.4241    2.8734    0.0013 H   0  0  0  0  0  0  0  0  0  0  0  0
  -34.0710    2.1749    0.0003 H   0  0  0  0  0  0  0  0  0  0  0  0
  -34.0531   -0.6005   -0.0014 H   0  0  0  0  0  0  0  0  0  0  0  0
  1  2  1  0
  2  3  2  0
  3  4  1  0
  4  5  1  0
  5  6  1  0
  6  7  2  0
  7  8  1  0
  8  9  2  0
  9 10  1  0
 10 11  2  0
 11 12  1  0
 12 13  2  0
 13 14  1  0
 14 15  2  0
 15 16  1  0
 16 17  2  0
 17 18  1  0
 13 19  1  0
 19 20  2  0
 20 21  1  0
 21 22  1  0
 22 23  2  0
 24 25  1  0
 25 26  2  0
 26 27  1  0
 27 28  1  0
 28 29  1  0
 29 30  2  0
 30 31  1  0
 31 32  2  0
 32 33  1  0
 33 34  2  0
 34 35  1  0
 35 36  2  0
 36 37  1  0
 37 38  2  0
 38 39  1  0
 39 40  2  0
 40 41  1  0
 36 42  1  0
 42 43  2  0
 43 44  1  0
 44 45  1  0
 45 46  2  0
 47 48  1  0
 48 49  2  0
 49 50  1  0
 50 51  1  0
 51 52  1  0
 52 53  2  0
 53 54  1  0
 54 55  2  0
 55 56  1  0
 56 57  2  0
 57 58  1  0
 58 59  2  0
 59 60  1  0
 60 61  2  0
 61 62  1  0
 62 63  2  0
 63 64  1  0
 59 65  1  0
 65 66  2  0
 66 67  1  0
 67 68  1  0
 68 69  2  0
 70 71  1  0
 71 72  2  0
 72 73  1  0
 73 74  1  0
 74 75  1  0
 75 76  2  0
 76 77  1  0
 77 78  2  0
 78 79  1  0
 79 80  2  0
 80 81  1  0
 81 82  2  0
 82 83  1  0
 83 84  2  0
 84 85  1  0
 85 86  2  0
 86 87  1  0
 82 88  1  0
 88 89  2  0
 89 90  1  0
 90 91  1  0
 91 92  2  0
 93 94  1  0
 94 95  2  0
 95 96  1  0
 96 97  1  0
 97 98  1  0
 98 99  2  0
 99100  1  0
100101  2  0
101102  1  0
102103  2  0
103104  1  0
104105  2  0
105106  1  0
106107  2  0
107108  1  0
108109  2  0
109110  1  0
105111  1  0
111112  2  0
112113  1  0
113114  1  0
114115  2  0
116117  1  0
117118  2  0
118119  1  0
119120  1  0
120121  1  0
121122  2  0
122123  1  0
123124  2  0
124125  1  0
125126  2  0
126127  1  0
127128  2  0
128129  1  0
129130  2  0
130131  1  0
131132  2  0
132133  1  0
128134  1  0
134135  2  0
135136  1  0
136137  1  0
137138  2  0
  5  1  2  0
 23  6  1  0
 28 24  2  0
 46 29  1  0
 51 47  2  0
 69 52  1  0
 74 70  2  0
 92 75  1  0
 97 93  2  0
115 98  1  0
120116  2  0
138121  1  0
 12  7  1  0
 18 14  1  0
 23 19  1  0
 35 30  1  0
 41 37  1  0
 46 42  1  0
 58 53  1  0
 64 60  1  0
 69 65  1  0
 81 76  1  0
 87 83  1  0
 92 88  1  0
104 99  1  0
110106  1  0
115111  1  0
127122  1  0
133129  1  0
138134  1  0
 17 26  1  0
 40 49  1  0
 63 72  1  0
 86 95  1  0
109118  1  0
  1139  1  0
  2140  1  0
  3141  1  0
  9142  1  0
 10143  1  0
 15144  1  0
 16145  1  0
 24146  1  0
 25147  1  0
 32148  1  0
 33149  1  0
 38150  1  0
 39151  1  0
 47152  1  0
 48153  1  0
 55154  1  0
 56155  1  0
 61156  1  0
 62157  1  0
 70158  1  0
 71159  1  0
 78160  1  0
 79161  1  0
 84162  1  0
 85163  1  0
 93164  1  0
 94165  1  0
101166  1  0
102167  1  0
107168  1  0
108169  1  0
116170  1  0
117171  1  0
124172  1  0
125173  1  0
130174  1  0
131175  1  0
132176  1  0
M  END
>  <_StereochemDone>  (22) 
1

>  <File>  (22) 
C-DAD_Hexamer/C-OTeO6-UV.gjf

>  <System_Code>  (22) 
OTeO

>  <Unit_Type>  (22) 
Hexamer

>  <Family>  (22) 
chalcogendiazoloquinoxaline

>  <InChIKey>  (22) 
RHEVUNCXPQAMRA-UHFFFAOYSA-N

$$$$
C-SOS6-UV
     RDKit          3D

176205  0  0  0  0  0  0  0  0999 V2000
   34.5542   -1.6748   -0.0000 C   0  0  0  0  0  0  0  0  0  0  0  0
   35.9584   -1.4153    0.0000 C   0  0  0  0  0  0  0  0  0  0  0  0
   36.2623   -0.0684    0.0000 C   0  0  0  0  0  0  0  0  0  0  0  0
   34.8026    0.9644   -0.0000 S   0  0  0  0  0  0  0  0  0  0  0  0
   33.7442   -0.5325   -0.0000 C   0  0  0  0  0  0  0  0  0  0  0  0
   32.2957   -0.5036   -0.0000 C   0  0  0  0  0  0  0  0  0  0  0  0
   31.4996    0.6784   -0.0001 C   0  0  0  0  0  0  0  0  0  0  0  0
   32.1627    1.8979   -0.0000 N   0  0  0  0  0  0  0  0  0  0  0  0
   31.4690    3.0250   -0.0001 C   0  0  0  0  0  0  0  0  0  0  0  0
   30.0305    3.0154   -0.0001 C   0  0  0  0  0  0  0  0  0  0  0  0
   29.3545    1.8763   -0.0001 N   0  0  0  0  0  0  0  0  0  0  0  0
   30.0356    0.6697   -0.0001 C   0  0  0  0  0  0  0  0  0  0  0  0
   29.2529   -0.5237   -0.0001 C   0  0  0  0  0  0  0  0  0  0  0  0
   27.8144   -0.5632   -0.0001 C   0  0  0  0  0  0  0  0  0  0  0  0
   27.0108   -1.7206   -0.0001 C   0  0  0  0  0  0  0  0  0  0  0  0
   25.6212   -1.4855   -0.0001 C   0  0  0  0  0  0  0  0  0  0  0  0
   25.2646   -0.1301   -0.0001 C   0  0  0  0  0  0  0  0  0  0  0  0
   26.7526    0.9237   -0.0001 S   0  0  0  0  0  0  0  0  0  0  0  0
   30.0512   -1.7267   -0.0001 C   0  0  0  0  0  0  0  0  0  0  0  0
   29.6186   -3.0054   -0.0001 N   0  0  0  0  0  0  0  0  0  0  0  0
   30.7968   -3.7926   -0.0001 O   0  0  0  0  0  0  0  0  0  0  0  0
   31.9640   -2.9899   -0.0000 N   0  0  0  0  0  0  0  0  0  0  0  0
   31.5132   -1.7150   -0.0001 C   0  0  0  0  0  0  0  0  0  0  0  0
   22.2142    2.0322   -0.0001 C   0  0  0  0  0  0  0  0  0  0  0  0
   23.6020    1.7955   -0.0001 C   0  0  0  0  0  0  0  0  0  0  0  0
   23.9578    0.4389   -0.0001 C   0  0  0  0  0  0  0  0  0  0  0  0
   22.4694   -0.6142   -0.0001 S   0  0  0  0  0  0  0  0  0  0  0  0
   21.4075    0.8742   -0.0000 C   0  0  0  0  0  0  0  0  0  0  0  0
   19.9730    0.8366   -0.0000 C   0  0  0  0  0  0  0  0  0  0  0  0
   19.1895   -0.3620   -0.0000 C   0  0  0  0  0  0  0  0  0  0  0  0
   19.8691   -1.5663   -0.0000 N   0  0  0  0  0  0  0  0  0  0  0  0
   19.1908   -2.7077   -0.0000 C   0  0  0  0  0  0  0  0  0  0  0  0
   17.7575   -2.7167    0.0000 C   0  0  0  0  0  0  0  0  0  0  0  0
   17.0651   -1.5836    0.0000 N   0  0  0  0  0  0  0  0  0  0  0  0
   17.7295   -0.3713    0.0000 C   0  0  0  0  0  0  0  0  0  0  0  0
   16.9306    0.8175    0.0000 C   0  0  0  0  0  0  0  0  0  0  0  0
   15.4970    0.8360    0.0000 C   0  0  0  0  0  0  0  0  0  0  0  0
   14.6746    1.9849    0.0000 C   0  0  0  0  0  0  0  0  0  0  0  0
   13.2918    1.7313    0.0000 C   0  0  0  0  0  0  0  0  0  0  0  0
   12.9516    0.3684    0.0001 C   0  0  0  0  0  0  0  0  0  0  0  0
   14.4552   -0.6660    0.0000 S   0  0  0  0  0  0  0  0  0  0  0  0
   17.7133    2.0326    0.0000 C   0  0  0  0  0  0  0  0  0  0  0  0
   17.2634    3.3045   -0.0000 N   0  0  0  0  0  0  0  0  0  0  0  0
   18.4315    4.1103    0.0000 O   0  0  0  0  0  0  0  0  0  0  0  0
   19.6093    3.3192   -0.0000 N   0  0  0  0  0  0  0  0  0  0  0  0
   19.1752    2.0415   -0.0000 C   0  0  0  0  0  0  0  0  0  0  0  0
    9.9328   -1.8311    0.0001 C   0  0  0  0  0  0  0  0  0  0  0  0
   11.3151   -1.5772    0.0001 C   0  0  0  0  0  0  0  0  0  0  0  0
   11.6552   -0.2140    0.0001 C   0  0  0  0  0  0  0  0  0  0  0  0
   10.1516    0.8204    0.0001 S   0  0  0  0  0  0  0  0  0  0  0  0
    9.1097   -0.6819    0.0001 C   0  0  0  0  0  0  0  0  0  0  0  0
    7.6771   -0.6638    0.0001 C   0  0  0  0  0  0  0  0  0  0  0  0
    6.8782    0.5265    0.0001 C   0  0  0  0  0  0  0  0  0  0  0  0
    7.5426    1.7378    0.0001 N   0  0  0  0  0  0  0  0  0  0  0  0
    6.8501    2.8719    0.0001 C   0  0  0  0  0  0  0  0  0  0  0  0
    5.4180    2.8631    0.0001 C   0  0  0  0  0  0  0  0  0  0  0  0
    4.7396    1.7205    0.0001 N   0  0  0  0  0  0  0  0  0  0  0  0
    5.4189    0.5175    0.0001 C   0  0  0  0  0  0  0  0  0  0  0  0
    4.6348   -0.6826    0.0001 C   0  0  0  0  0  0  0  0  0  0  0  0
    3.2029   -0.7184    0.0001 C   0  0  0  0  0  0  0  0  0  0  0  0
    2.3941   -1.8781    0.0001 C   0  0  0  0  0  0  0  0  0  0  0  0
    1.0091   -1.6419    0.0001 C   0  0  0  0  0  0  0  0  0  0  0  0
    0.6515   -0.2826    0.0001 C   0  0  0  0  0  0  0  0  0  0  0  0
    2.1424    0.7707    0.0001 S   0  0  0  0  0  0  0  0  0  0  0  0
    5.4326   -1.8883    0.0001 C   0  0  0  0  0  0  0  0  0  0  0  0
    4.9984   -3.1654    0.0001 N   0  0  0  0  0  0  0  0  0  0  0  0
    6.1764   -3.9574    0.0001 O   0  0  0  0  0  0  0  0  0  0  0  0
    7.3445   -3.1508    0.0001 N   0  0  0  0  0  0  0  0  0  0  0  0
    6.8944   -1.8792    0.0001 C   0  0  0  0  0  0  0  0  0  0  0  0
   -2.3941    1.8781    0.0001 C   0  0  0  0  0  0  0  0  0  0  0  0
   -1.0091    1.6419    0.0001 C   0  0  0  0  0  0  0  0  0  0  0  0
   -0.6515    0.2826    0.0001 C   0  0  0  0  0  0  0  0  0  0  0  0
   -2.1424   -0.7707    0.0001 S   0  0  0  0  0  0  0  0  0  0  0  0
   -3.2029    0.7184    0.0001 C   0  0  0  0  0  0  0  0  0  0  0  0
   -4.6348    0.6826    0.0001 C   0  0  0  0  0  0  0  0  0  0  0  0
   -5.4189   -0.5175    0.0001 C   0  0  0  0  0  0  0  0  0  0  0  0
   -4.7396   -1.7205    0.0001 N   0  0  0  0  0  0  0  0  0  0  0  0
   -5.4180   -2.8631    0.0001 C   0  0  0  0  0  0  0  0  0  0  0  0
   -6.8501   -2.8719    0.0001 C   0  0  0  0  0  0  0  0  0  0  0  0
   -7.5426   -1.7378    0.0001 N   0  0  0  0  0  0  0  0  0  0  0  0
   -6.8782   -0.5265    0.0001 C   0  0  0  0  0  0  0  0  0  0  0  0
   -7.6771    0.6638    0.0001 C   0  0  0  0  0  0  0  0  0  0  0  0
   -9.1097    0.6819    0.0001 C   0  0  0  0  0  0  0  0  0  0  0  0
   -9.9328    1.8311    0.0000 C   0  0  0  0  0  0  0  0  0  0  0  0
  -11.3151    1.5772    0.0000 C   0  0  0  0  0  0  0  0  0  0  0  0
  -11.6552    0.2140    0.0000 C   0  0  0  0  0  0  0  0  0  0  0  0
  -10.1516   -0.8204    0.0001 S   0  0  0  0  0  0  0  0  0  0  0  0
   -6.8944    1.8792    0.0001 C   0  0  0  0  0  0  0  0  0  0  0  0
   -7.3445    3.1508    0.0001 N   0  0  0  0  0  0  0  0  0  0  0  0
   -6.1764    3.9574    0.0001 O   0  0  0  0  0  0  0  0  0  0  0  0
   -4.9984    3.1654    0.0001 N   0  0  0  0  0  0  0  0  0  0  0  0
   -5.4326    1.8883    0.0001 C   0  0  0  0  0  0  0  0  0  0  0  0
  -14.6746   -1.9849   -0.0000 C   0  0  0  0  0  0  0  0  0  0  0  0
  -13.2918   -1.7313    0.0000 C   0  0  0  0  0  0  0  0  0  0  0  0
  -12.9516   -0.3684    0.0000 C   0  0  0  0  0  0  0  0  0  0  0  0
  -14.4552    0.6660   -0.0000 S   0  0  0  0  0  0  0  0  0  0  0  0
  -15.4970   -0.8360   -0.0000 C   0  0  0  0  0  0  0  0  0  0  0  0
  -16.9306   -0.8175   -0.0000 C   0  0  0  0  0  0  0  0  0  0  0  0
  -17.7295    0.3713   -0.0001 C   0  0  0  0  0  0  0  0  0  0  0  0
  -17.0651    1.5836   -0.0001 N   0  0  0  0  0  0  0  0  0  0  0  0
  -17.7575    2.7167   -0.0001 C   0  0  0  0  0  0  0  0  0  0  0  0
  -19.1908    2.7077   -0.0001 C   0  0  0  0  0  0  0  0  0  0  0  0
  -19.8691    1.5663   -0.0001 N   0  0  0  0  0  0  0  0  0  0  0  0
  -19.1895    0.3620   -0.0001 C   0  0  0  0  0  0  0  0  0  0  0  0
  -19.9730   -0.8366   -0.0001 C   0  0  0  0  0  0  0  0  0  0  0  0
  -21.4075   -0.8742   -0.0001 C   0  0  0  0  0  0  0  0  0  0  0  0
  -22.2142   -2.0322   -0.0001 C   0  0  0  0  0  0  0  0  0  0  0  0
  -23.6020   -1.7955   -0.0001 C   0  0  0  0  0  0  0  0  0  0  0  0
  -23.9578   -0.4389   -0.0001 C   0  0  0  0  0  0  0  0  0  0  0  0
  -22.4694    0.6142   -0.0001 S   0  0  0  0  0  0  0  0  0  0  0  0
  -19.1752   -2.0415   -0.0001 C   0  0  0  0  0  0  0  0  0  0  0  0
  -19.6093   -3.3192   -0.0001 N   0  0  0  0  0  0  0  0  0  0  0  0
  -18.4315   -4.1103   -0.0000 O   0  0  0  0  0  0  0  0  0  0  0  0
  -17.2634   -3.3045   -0.0000 N   0  0  0  0  0  0  0  0  0  0  0  0
  -17.7133   -2.0326   -0.0000 C   0  0  0  0  0  0  0  0  0  0  0  0
  -27.0108    1.7206   -0.0001 C   0  0  0  0  0  0  0  0  0  0  0  0
  -25.6212    1.4855   -0.0001 C   0  0  0  0  0  0  0  0  0  0  0  0
  -25.2646    0.1301   -0.0001 C   0  0  0  0  0  0  0  0  0  0  0  0
  -26.7526   -0.9237   -0.0001 S   0  0  0  0  0  0  0  0  0  0  0  0
  -27.8144    0.5632   -0.0001 C   0  0  0  0  0  0  0  0  0  0  0  0
  -29.2529    0.5237   -0.0001 C   0  0  0  0  0  0  0  0  0  0  0  0
  -30.0356   -0.6697   -0.0001 C   0  0  0  0  0  0  0  0  0  0  0  0
  -29.3545   -1.8763   -0.0001 N   0  0  0  0  0  0  0  0  0  0  0  0
  -30.0305   -3.0154   -0.0000 C   0  0  0  0  0  0  0  0  0  0  0  0
  -31.4690   -3.0250   -0.0000 C   0  0  0  0  0  0  0  0  0  0  0  0
  -32.1627   -1.8979   -0.0000 N   0  0  0  0  0  0  0  0  0  0  0  0
  -31.4996   -0.6784   -0.0000 C   0  0  0  0  0  0  0  0  0  0  0  0
  -32.2957    0.5036   -0.0000 C   0  0  0  0  0  0  0  0  0  0  0  0
  -33.7442    0.5325    0.0000 C   0  0  0  0  0  0  0  0  0  0  0  0
  -34.5542    1.6747    0.0000 C   0  0  0  0  0  0  0  0  0  0  0  0
  -35.9584    1.4153    0.0001 C   0  0  0  0  0  0  0  0  0  0  0  0
  -36.2623    0.0684    0.0001 C   0  0  0  0  0  0  0  0  0  0  0  0
  -34.8026   -0.9644    0.0000 S   0  0  0  0  0  0  0  0  0  0  0  0
  -31.5132    1.7150   -0.0001 C   0  0  0  0  0  0  0  0  0  0  0  0
  -31.9640    2.9899   -0.0000 N   0  0  0  0  0  0  0  0  0  0  0  0
  -30.7968    3.7926   -0.0001 O   0  0  0  0  0  0  0  0  0  0  0  0
  -29.6186    3.0054   -0.0001 N   0  0  0  0  0  0  0  0  0  0  0  0
  -30.0513    1.7267   -0.0001 C   0  0  0  0  0  0  0  0  0  0  0  0
   34.1405   -2.6741   -0.0000 H   0  0  0  0  0  0  0  0  0  0  0  0
   36.7062   -2.2005    0.0000 H   0  0  0  0  0  0  0  0  0  0  0  0
   37.2388    0.3969    0.0000 H   0  0  0  0  0  0  0  0  0  0  0  0
   32.0215    3.9603   -0.0000 H   0  0  0  0  0  0  0  0  0  0  0  0
   29.4641    3.9422   -0.0001 H   0  0  0  0  0  0  0  0  0  0  0  0
   27.4417   -2.7125   -0.0001 H   0  0  0  0  0  0  0  0  0  0  0  0
   24.8892   -2.2863   -0.0001 H   0  0  0  0  0  0  0  0  0  0  0  0
   21.7837    3.0244   -0.0001 H   0  0  0  0  0  0  0  0  0  0  0  0
   24.3352    2.5951   -0.0001 H   0  0  0  0  0  0  0  0  0  0  0  0
   19.7580   -3.6338   -0.0000 H   0  0  0  0  0  0  0  0  0  0  0  0
   17.2017   -3.6497    0.0000 H   0  0  0  0  0  0  0  0  0  0  0  0
   15.0932    2.9821    0.0000 H   0  0  0  0  0  0  0  0  0  0  0  0
   12.5484    2.5215    0.0001 H   0  0  0  0  0  0  0  0  0  0  0  0
    9.5141   -2.8283    0.0001 H   0  0  0  0  0  0  0  0  0  0  0  0
   12.0588   -2.3672    0.0001 H   0  0  0  0  0  0  0  0  0  0  0  0
    7.4064    3.8045    0.0001 H   0  0  0  0  0  0  0  0  0  0  0  0
    4.8503    3.7888    0.0001 H   0  0  0  0  0  0  0  0  0  0  0  0
    2.8255   -2.8699    0.0001 H   0  0  0  0  0  0  0  0  0  0  0  0
    0.2754   -2.4411    0.0001 H   0  0  0  0  0  0  0  0  0  0  0  0
   -2.8255    2.8699    0.0001 H   0  0  0  0  0  0  0  0  0  0  0  0
   -0.2754    2.4412    0.0001 H   0  0  0  0  0  0  0  0  0  0  0  0
   -4.8503   -3.7888    0.0001 H   0  0  0  0  0  0  0  0  0  0  0  0
   -7.4064   -3.8045    0.0001 H   0  0  0  0  0  0  0  0  0  0  0  0
   -9.5141    2.8283    0.0000 H   0  0  0  0  0  0  0  0  0  0  0  0
  -12.0588    2.3672    0.0000 H   0  0  0  0  0  0  0  0  0  0  0  0
  -15.0932   -2.9821   -0.0000 H   0  0  0  0  0  0  0  0  0  0  0  0
  -12.5484   -2.5215    0.0000 H   0  0  0  0  0  0  0  0  0  0  0  0
  -17.2017    3.6497   -0.0001 H   0  0  0  0  0  0  0  0  0  0  0  0
  -19.7580    3.6338   -0.0001 H   0  0  0  0  0  0  0  0  0  0  0  0
  -21.7837   -3.0244   -0.0001 H   0  0  0  0  0  0  0  0  0  0  0  0
  -24.3352   -2.5951   -0.0001 H   0  0  0  0  0  0  0  0  0  0  0  0
  -27.4417    2.7125   -0.0001 H   0  0  0  0  0  0  0  0  0  0  0  0
  -24.8892    2.2863   -0.0001 H   0  0  0  0  0  0  0  0  0  0  0  0
  -29.4641   -3.9422   -0.0000 H   0  0  0  0  0  0  0  0  0  0  0  0
  -32.0215   -3.9603   -0.0000 H   0  0  0  0  0  0  0  0  0  0  0  0
  -34.1405    2.6741    0.0000 H   0  0  0  0  0  0  0  0  0  0  0  0
  -36.7062    2.2005    0.0001 H   0  0  0  0  0  0  0  0  0  0  0  0
  -37.2388   -0.3969    0.0001 H   0  0  0  0  0  0  0  0  0  0  0  0
  1  2  1  0
  2  3  2  0
  3  4  1  0
  4  5  1  0
  5  6  1  0
  6  7  2  0
  7  8  1  0
  8  9  2  0
  9 10  1  0
 10 11  2  0
 11 12  1  0
 12 13  2  0
 13 14  1  0
 14 15  2  0
 15 16  1  0
 16 17  2  0
 17 18  1  0
 13 19  1  0
 19 20  2  0
 20 21  1  0
 21 22  1  0
 22 23  2  0
 24 25  1  0
 25 26  2  0
 26 27  1  0
 27 28  1  0
 28 29  1  0
 29 30  2  0
 30 31  1  0
 31 32  2  0
 32 33  1  0
 33 34  2  0
 34 35  1  0
 35 36  2  0
 36 37  1  0
 37 38  2  0
 38 39  1  0
 39 40  2  0
 40 41  1  0
 36 42  1  0
 42 43  2  0
 43 44  1  0
 44 45  1  0
 45 46  2  0
 47 48  1  0
 48 49  2  0
 49 50  1  0
 50 51  1  0
 51 52  1  0
 52 53  2  0
 53 54  1  0
 54 55  2  0
 55 56  1  0
 56 57  2  0
 57 58  1  0
 58 59  2  0
 59 60  1  0
 60 61  2  0
 61 62  1  0
 62 63  2  0
 63 64  1  0
 59 65  1  0
 65 66  2  0
 66 67  1  0
 67 68  1  0
 68 69  2  0
 70 71  1  0
 71 72  2  0
 72 73  1  0
 73 74  1  0
 74 75  1  0
 75 76  2  0
 76 77  1  0
 77 78  2  0
 78 79  1  0
 79 80  2  0
 80 81  1  0
 81 82  2  0
 82 83  1  0
 83 84  2  0
 84 85  1  0
 85 86  2  0
 86 87  1  0
 82 88  1  0
 88 89  2  0
 89 90  1  0
 90 91  1  0
 91 92  2  0
 93 94  1  0
 94 95  2  0
 95 96  1  0
 96 97  1  0
 97 98  1  0
 98 99  2  0
 99100  1  0
100101  2  0
101102  1  0
102103  2  0
103104  1  0
104105  2  0
105106  1  0
106107  2  0
107108  1  0
108109  2  0
109110  1  0
105111  1  0
111112  2  0
112113  1  0
113114  1  0
114115  2  0
116117  1  0
117118  2  0
118119  1  0
119120  1  0
120121  1  0
121122  2  0
122123  1  0
123124  2  0
124125  1  0
125126  2  0
126127  1  0
127128  2  0
128129  1  0
129130  2  0
130131  1  0
131132  2  0
132133  1  0
128134  1  0
134135  2  0
135136  1  0
136137  1  0
137138  2  0
  5  1  2  0
 23  6  1  0
 28 24  2  0
 46 29  1  0
 51 47  2  0
 69 52  1  0
 74 70  2  0
 92 75  1  0
 97 93  2  0
115 98  1  0
120116  2  0
138121  1  0
 12  7  1  0
 18 14  1  0
 23 19  1  0
 35 30  1  0
 41 37  1  0
 46 42  1  0
 58 53  1  0
 64 60  1  0
 69 65  1  0
 81 76  1  0
 87 83  1  0
 92 88  1  0
104 99  1  0
110106  1  0
115111  1  0
127122  1  0
133129  1  0
138134  1  0
 17 26  1  0
 40 49  1  0
 63 72  1  0
 86 95  1  0
109118  1  0
  1139  1  0
  2140  1  0
  3141  1  0
  9142  1  0
 10143  1  0
 15144  1  0
 16145  1  0
 24146  1  0
 25147  1  0
 32148  1  0
 33149  1  0
 38150  1  0
 39151  1  0
 47152  1  0
 48153  1  0
 55154  1  0
 56155  1  0
 61156  1  0
 62157  1  0
 70158  1  0
 71159  1  0
 78160  1  0
 79161  1  0
 84162  1  0
 85163  1  0
 93164  1  0
 94165  1  0
101166  1  0
102167  1  0
107168  1  0
108169  1  0
116170  1  0
117171  1  0
124172  1  0
125173  1  0
130174  1  0
131175  1  0
132176  1  0
M  END
>  <_StereochemDone>  (23) 
1

>  <File>  (23) 
C-DAD_Hexamer/C-SOS6-UV.gjf

>  <System_Code>  (23) 
SOS

>  <Unit_Type>  (23) 
Hexamer

>  <Family>  (23) 
chalcogendiazoloquinoxaline

>  <InChIKey>  (23) 
WROOESBSJFHGNP-UHFFFAOYSA-N

$$$$
C-SSS6-UV
     RDKit          3D

176205  0  0  0  0  0  0  0  0999 V2000
   34.5458    1.6035    0.0002 C   0  0  0  0  0  0  0  0  0  0  0  0
   35.9425    1.3034    0.0002 C   0  0  0  0  0  0  0  0  0  0  0  0
   36.2081   -0.0509    0.0003 C   0  0  0  0  0  0  0  0  0  0  0  0
   34.7185   -1.0408    0.0002 S   0  0  0  0  0  0  0  0  0  0  0  0
   33.6981    0.4894    0.0002 C   0  0  0  0  0  0  0  0  0  0  0  0
   32.2448    0.4949    0.0002 C   0  0  0  0  0  0  0  0  0  0  0  0
   31.4429   -0.6819    0.0002 C   0  0  0  0  0  0  0  0  0  0  0  0
   32.0995   -1.9043    0.0002 N   0  0  0  0  0  0  0  0  0  0  0  0
   31.4058   -3.0312    0.0002 C   0  0  0  0  0  0  0  0  0  0  0  0
   29.9689   -3.0171    0.0002 C   0  0  0  0  0  0  0  0  0  0  0  0
   29.3008   -1.8733    0.0002 N   0  0  0  0  0  0  0  0  0  0  0  0
   29.9833   -0.6688    0.0002 C   0  0  0  0  0  0  0  0  0  0  0  0
   29.2024    0.5252    0.0001 C   0  0  0  0  0  0  0  0  0  0  0  0
   27.7607    0.5404    0.0001 C   0  0  0  0  0  0  0  0  0  0  0  0
   26.9265    1.6774    0.0001 C   0  0  0  0  0  0  0  0  0  0  0  0
   25.5431    1.4130    0.0001 C   0  0  0  0  0  0  0  0  0  0  0  0
   25.2138    0.0501    0.0001 C   0  0  0  0  0  0  0  0  0  0  0  0
   26.7253   -0.9718    0.0001 S   0  0  0  0  0  0  0  0  0  0  0  0
   29.9902    1.7471    0.0001 C   0  0  0  0  0  0  0  0  0  0  0  0
   29.4551    2.9850    0.0001 N   0  0  0  0  0  0  0  0  0  0  0  0
   30.7623    4.1590    0.0001 S   0  0  0  0  0  0  0  0  0  0  0  0
   32.0443    2.9589    0.0001 N   0  0  0  0  0  0  0  0  0  0  0  0
   31.4827    1.7295    0.0002 C   0  0  0  0  0  0  0  0  0  0  0  0
   22.2098   -2.1741    0.0001 C   0  0  0  0  0  0  0  0  0  0  0  0
   23.5914   -1.9082    0.0001 C   0  0  0  0  0  0  0  0  0  0  0  0
   23.9201   -0.5443    0.0001 C   0  0  0  0  0  0  0  0  0  0  0  0
   22.4085    0.4773    0.0000 S   0  0  0  0  0  0  0  0  0  0  0  0
   21.3726   -1.0363    0.0000 C   0  0  0  0  0  0  0  0  0  0  0  0
   19.9350   -1.0227    0.0000 C   0  0  0  0  0  0  0  0  0  0  0  0
   19.1540    0.1774   -0.0000 C   0  0  0  0  0  0  0  0  0  0  0  0
   19.8355    1.3793   -0.0000 N   0  0  0  0  0  0  0  0  0  0  0  0
   19.1651    2.5258   -0.0000 C   0  0  0  0  0  0  0  0  0  0  0  0
   17.7340    2.5401   -0.0000 C   0  0  0  0  0  0  0  0  0  0  0  0
   17.0414    1.4066   -0.0000 N   0  0  0  0  0  0  0  0  0  0  0  0
   17.6988    0.1922   -0.0000 C   0  0  0  0  0  0  0  0  0  0  0  0
   16.8934   -0.9924   -0.0000 C   0  0  0  0  0  0  0  0  0  0  0  0
   15.4578   -0.9758   -0.0001 C   0  0  0  0  0  0  0  0  0  0  0  0
   14.5965   -2.0982   -0.0001 C   0  0  0  0  0  0  0  0  0  0  0  0
   13.2230   -1.8058   -0.0001 C   0  0  0  0  0  0  0  0  0  0  0  0
   12.9196   -0.4331   -0.0001 C   0  0  0  0  0  0  0  0  0  0  0  0
   14.4537    0.5585   -0.0001 S   0  0  0  0  0  0  0  0  0  0  0  0
   17.6558   -2.2320   -0.0000 C   0  0  0  0  0  0  0  0  0  0  0  0
   17.0956   -3.4577   -0.0000 N   0  0  0  0  0  0  0  0  0  0  0  0
   18.3784   -4.6623    0.0000 S   0  0  0  0  0  0  0  0  0  0  0  0
   19.6845   -3.4834    0.0000 N   0  0  0  0  0  0  0  0  0  0  0  0
   19.1483   -2.2463    0.0000 C   0  0  0  0  0  0  0  0  0  0  0  0
    9.9657    1.8490   -0.0002 C   0  0  0  0  0  0  0  0  0  0  0  0
   11.3386    1.5561   -0.0001 C   0  0  0  0  0  0  0  0  0  0  0  0
   11.6416    0.1830   -0.0001 C   0  0  0  0  0  0  0  0  0  0  0  0
   10.1074   -0.8084   -0.0002 S   0  0  0  0  0  0  0  0  0  0  0  0
    9.1033    0.7265   -0.0002 C   0  0  0  0  0  0  0  0  0  0  0  0
    7.6691    0.7437   -0.0002 C   0  0  0  0  0  0  0  0  0  0  0  0
    6.8634   -0.4426   -0.0002 C   0  0  0  0  0  0  0  0  0  0  0  0
    7.5207   -1.6561   -0.0001 N   0  0  0  0  0  0  0  0  0  0  0  0
    6.8275   -2.7905   -0.0001 C   0  0  0  0  0  0  0  0  0  0  0  0
    5.3980   -2.7763   -0.0001 C   0  0  0  0  0  0  0  0  0  0  0  0
    4.7278   -1.6280   -0.0002 N   0  0  0  0  0  0  0  0  0  0  0  0
    5.4092   -0.4282   -0.0002 C   0  0  0  0  0  0  0  0  0  0  0  0
    4.6276    0.7743   -0.0002 C   0  0  0  0  0  0  0  0  0  0  0  0
    3.1938    0.7859   -0.0002 C   0  0  0  0  0  0  0  0  0  0  0  0
    2.3542    1.9263   -0.0002 C   0  0  0  0  0  0  0  0  0  0  0  0
    0.9762    1.6617   -0.0002 C   0  0  0  0  0  0  0  0  0  0  0  0
    0.6447    0.2944   -0.0002 C   0  0  0  0  0  0  0  0  0  0  0  0
    2.1590   -0.7282   -0.0002 S   0  0  0  0  0  0  0  0  0  0  0  0
    5.4147    1.9990   -0.0002 C   0  0  0  0  0  0  0  0  0  0  0  0
    4.8788    3.2352   -0.0002 N   0  0  0  0  0  0  0  0  0  0  0  0
    6.1853    4.4152   -0.0002 S   0  0  0  0  0  0  0  0  0  0  0  0
    7.4678    3.2092   -0.0002 N   0  0  0  0  0  0  0  0  0  0  0  0
    6.9071    1.9839   -0.0002 C   0  0  0  0  0  0  0  0  0  0  0  0
   -2.3542   -1.9263   -0.0002 C   0  0  0  0  0  0  0  0  0  0  0  0
   -0.9762   -1.6617   -0.0002 C   0  0  0  0  0  0  0  0  0  0  0  0
   -0.6447   -0.2944   -0.0002 C   0  0  0  0  0  0  0  0  0  0  0  0
   -2.1590    0.7282   -0.0002 S   0  0  0  0  0  0  0  0  0  0  0  0
   -3.1938   -0.7859   -0.0002 C   0  0  0  0  0  0  0  0  0  0  0  0
   -4.6276   -0.7743   -0.0002 C   0  0  0  0  0  0  0  0  0  0  0  0
   -5.4092    0.4282   -0.0002 C   0  0  0  0  0  0  0  0  0  0  0  0
   -4.7278    1.6280   -0.0002 N   0  0  0  0  0  0  0  0  0  0  0  0
   -5.3980    2.7763   -0.0001 C   0  0  0  0  0  0  0  0  0  0  0  0
   -6.8275    2.7905   -0.0001 C   0  0  0  0  0  0  0  0  0  0  0  0
   -7.5207    1.6561   -0.0001 N   0  0  0  0  0  0  0  0  0  0  0  0
   -6.8634    0.4426   -0.0002 C   0  0  0  0  0  0  0  0  0  0  0  0
   -7.6691   -0.7437   -0.0001 C   0  0  0  0  0  0  0  0  0  0  0  0
   -9.1033   -0.7264   -0.0001 C   0  0  0  0  0  0  0  0  0  0  0  0
   -9.9657   -1.8490   -0.0001 C   0  0  0  0  0  0  0  0  0  0  0  0
  -11.3386   -1.5561   -0.0001 C   0  0  0  0  0  0  0  0  0  0  0  0
  -11.6416   -0.1830   -0.0001 C   0  0  0  0  0  0  0  0  0  0  0  0
  -10.1074    0.8084   -0.0001 S   0  0  0  0  0  0  0  0  0  0  0  0
   -6.9070   -1.9839   -0.0002 C   0  0  0  0  0  0  0  0  0  0  0  0
   -7.4678   -3.2092   -0.0001 N   0  0  0  0  0  0  0  0  0  0  0  0
   -6.1853   -4.4152   -0.0002 S   0  0  0  0  0  0  0  0  0  0  0  0
   -4.8788   -3.2352   -0.0002 N   0  0  0  0  0  0  0  0  0  0  0  0
   -5.4147   -1.9990   -0.0002 C   0  0  0  0  0  0  0  0  0  0  0  0
  -14.5965    2.0982   -0.0000 C   0  0  0  0  0  0  0  0  0  0  0  0
  -13.2230    1.8058   -0.0001 C   0  0  0  0  0  0  0  0  0  0  0  0
  -12.9196    0.4331   -0.0001 C   0  0  0  0  0  0  0  0  0  0  0  0
  -14.4537   -0.5584   -0.0001 S   0  0  0  0  0  0  0  0  0  0  0  0
  -15.4578    0.9758   -0.0000 C   0  0  0  0  0  0  0  0  0  0  0  0
  -16.8934    0.9924   -0.0000 C   0  0  0  0  0  0  0  0  0  0  0  0
  -17.6988   -0.1922   -0.0000 C   0  0  0  0  0  0  0  0  0  0  0  0
  -17.0414   -1.4066   -0.0000 N   0  0  0  0  0  0  0  0  0  0  0  0
  -17.7340   -2.5401   -0.0000 C   0  0  0  0  0  0  0  0  0  0  0  0
  -19.1651   -2.5258    0.0000 C   0  0  0  0  0  0  0  0  0  0  0  0
  -19.8355   -1.3793    0.0000 N   0  0  0  0  0  0  0  0  0  0  0  0
  -19.1540   -0.1774    0.0000 C   0  0  0  0  0  0  0  0  0  0  0  0
  -19.9350    1.0227    0.0000 C   0  0  0  0  0  0  0  0  0  0  0  0
  -21.3726    1.0363    0.0000 C   0  0  0  0  0  0  0  0  0  0  0  0
  -22.2098    2.1741    0.0001 C   0  0  0  0  0  0  0  0  0  0  0  0
  -23.5914    1.9082    0.0001 C   0  0  0  0  0  0  0  0  0  0  0  0
  -23.9201    0.5443    0.0001 C   0  0  0  0  0  0  0  0  0  0  0  0
  -22.4085   -0.4773    0.0000 S   0  0  0  0  0  0  0  0  0  0  0  0
  -19.1483    2.2463    0.0000 C   0  0  0  0  0  0  0  0  0  0  0  0
  -19.6845    3.4834    0.0000 N   0  0  0  0  0  0  0  0  0  0  0  0
  -18.3784    4.6623    0.0000 S   0  0  0  0  0  0  0  0  0  0  0  0
  -17.0956    3.4577    0.0000 N   0  0  0  0  0  0  0  0  0  0  0  0
  -17.6558    2.2320    0.0000 C   0  0  0  0  0  0  0  0  0  0  0  0
  -26.9265   -1.6774    0.0001 C   0  0  0  0  0  0  0  0  0  0  0  0
  -25.5431   -1.4130    0.0001 C   0  0  0  0  0  0  0  0  0  0  0  0
  -25.2138   -0.0501    0.0001 C   0  0  0  0  0  0  0  0  0  0  0  0
  -26.7253    0.9718    0.0001 S   0  0  0  0  0  0  0  0  0  0  0  0
  -27.7607   -0.5405    0.0001 C   0  0  0  0  0  0  0  0  0  0  0  0
  -29.2024   -0.5252    0.0001 C   0  0  0  0  0  0  0  0  0  0  0  0
  -29.9833    0.6687    0.0002 C   0  0  0  0  0  0  0  0  0  0  0  0
  -29.3008    1.8733    0.0002 N   0  0  0  0  0  0  0  0  0  0  0  0
  -29.9689    3.0171    0.0002 C   0  0  0  0  0  0  0  0  0  0  0  0
  -31.4058    3.0312    0.0002 C   0  0  0  0  0  0  0  0  0  0  0  0
  -32.0995    1.9043    0.0002 N   0  0  0  0  0  0  0  0  0  0  0  0
  -31.4429    0.6818    0.0002 C   0  0  0  0  0  0  0  0  0  0  0  0
  -32.2448   -0.4949    0.0002 C   0  0  0  0  0  0  0  0  0  0  0  0
  -33.6981   -0.4894    0.0002 C   0  0  0  0  0  0  0  0  0  0  0  0
  -34.5458   -1.6035    0.0002 C   0  0  0  0  0  0  0  0  0  0  0  0
  -35.9425   -1.3034    0.0002 C   0  0  0  0  0  0  0  0  0  0  0  0
  -36.2081    0.0509    0.0003 C   0  0  0  0  0  0  0  0  0  0  0  0
  -34.7185    1.0408    0.0002 S   0  0  0  0  0  0  0  0  0  0  0  0
  -31.4827   -1.7295    0.0002 C   0  0  0  0  0  0  0  0  0  0  0  0
  -32.0443   -2.9589    0.0002 N   0  0  0  0  0  0  0  0  0  0  0  0
  -30.7623   -4.1590    0.0001 S   0  0  0  0  0  0  0  0  0  0  0  0
  -29.4551   -2.9850    0.0001 N   0  0  0  0  0  0  0  0  0  0  0  0
  -29.9902   -1.7471    0.0001 C   0  0  0  0  0  0  0  0  0  0  0  0
   34.1513    2.6092    0.0002 H   0  0  0  0  0  0  0  0  0  0  0  0
   36.7117    2.0679    0.0003 H   0  0  0  0  0  0  0  0  0  0  0  0
   37.1709   -0.5442    0.0003 H   0  0  0  0  0  0  0  0  0  0  0  0
   31.9579   -3.9669    0.0002 H   0  0  0  0  0  0  0  0  0  0  0  0
   29.3967   -3.9404    0.0002 H   0  0  0  0  0  0  0  0  0  0  0  0
   27.3468    2.6727    0.0001 H   0  0  0  0  0  0  0  0  0  0  0  0
   24.7943    2.1983    0.0000 H   0  0  0  0  0  0  0  0  0  0  0  0
   21.7894   -3.1693    0.0001 H   0  0  0  0  0  0  0  0  0  0  0  0
   24.3411   -2.6925    0.0001 H   0  0  0  0  0  0  0  0  0  0  0  0
   19.7387    3.4481   -0.0000 H   0  0  0  0  0  0  0  0  0  0  0  0
   17.1786    3.4734   -0.0001 H   0  0  0  0  0  0  0  0  0  0  0  0
   14.9980   -3.1012   -0.0000 H   0  0  0  0  0  0  0  0  0  0  0  0
   12.4575   -2.5749   -0.0001 H   0  0  0  0  0  0  0  0  0  0  0  0
    9.5641    2.8520   -0.0002 H   0  0  0  0  0  0  0  0  0  0  0  0
   12.1044    2.3248   -0.0001 H   0  0  0  0  0  0  0  0  0  0  0  0
    7.3835   -3.7234   -0.0001 H   0  0  0  0  0  0  0  0  0  0  0  0
    4.8236   -3.6979   -0.0001 H   0  0  0  0  0  0  0  0  0  0  0  0
    2.7765    2.9208   -0.0002 H   0  0  0  0  0  0  0  0  0  0  0  0
    0.2262    2.4458   -0.0002 H   0  0  0  0  0  0  0  0  0  0  0  0
   -2.7765   -2.9208   -0.0002 H   0  0  0  0  0  0  0  0  0  0  0  0
   -0.2262   -2.4458   -0.0002 H   0  0  0  0  0  0  0  0  0  0  0  0
   -4.8236    3.6979   -0.0001 H   0  0  0  0  0  0  0  0  0  0  0  0
   -7.3835    3.7234   -0.0001 H   0  0  0  0  0  0  0  0  0  0  0  0
   -9.5641   -2.8520   -0.0001 H   0  0  0  0  0  0  0  0  0  0  0  0
  -12.1044   -2.3248   -0.0001 H   0  0  0  0  0  0  0  0  0  0  0  0
  -14.9980    3.1013   -0.0000 H   0  0  0  0  0  0  0  0  0  0  0  0
  -12.4575    2.5749   -0.0001 H   0  0  0  0  0  0  0  0  0  0  0  0
  -17.1786   -3.4734   -0.0000 H   0  0  0  0  0  0  0  0  0  0  0  0
  -19.7387   -3.4481    0.0000 H   0  0  0  0  0  0  0  0  0  0  0  0
  -21.7894    3.1693    0.0001 H   0  0  0  0  0  0  0  0  0  0  0  0
  -24.3411    2.6925    0.0001 H   0  0  0  0  0  0  0  0  0  0  0  0
  -27.3468   -2.6727    0.0001 H   0  0  0  0  0  0  0  0  0  0  0  0
  -24.7943   -2.1983    0.0001 H   0  0  0  0  0  0  0  0  0  0  0  0
  -29.3967    3.9404    0.0002 H   0  0  0  0  0  0  0  0  0  0  0  0
  -31.9579    3.9669    0.0002 H   0  0  0  0  0  0  0  0  0  0  0  0
  -34.1513   -2.6092    0.0002 H   0  0  0  0  0  0  0  0  0  0  0  0
  -36.7117   -2.0679    0.0003 H   0  0  0  0  0  0  0  0  0  0  0  0
  -37.1709    0.5441    0.0003 H   0  0  0  0  0  0  0  0  0  0  0  0
  1  2  1  0
  2  3  2  0
  3  4  1  0
  4  5  1  0
  5  6  1  0
  6  7  2  0
  7  8  1  0
  8  9  2  0
  9 10  1  0
 10 11  2  0
 11 12  1  0
 12 13  2  0
 13 14  1  0
 14 15  2  0
 15 16  1  0
 16 17  2  0
 17 18  1  0
 13 19  1  0
 19 20  2  0
 20 21  1  0
 21 22  1  0
 22 23  2  0
 24 25  1  0
 25 26  2  0
 26 27  1  0
 27 28  1  0
 28 29  1  0
 29 30  2  0
 30 31  1  0
 31 32  2  0
 32 33  1  0
 33 34  2  0
 34 35  1  0
 35 36  2  0
 36 37  1  0
 37 38  2  0
 38 39  1  0
 39 40  2  0
 40 41  1  0
 36 42  1  0
 42 43  2  0
 43 44  1  0
 44 45  1  0
 45 46  2  0
 47 48  1  0
 48 49  2  0
 49 50  1  0
 50 51  1  0
 51 52  1  0
 52 53  2  0
 53 54  1  0
 54 55  2  0
 55 56  1  0
 56 57  2  0
 57 58  1  0
 58 59  2  0
 59 60  1  0
 60 61  2  0
 61 62  1  0
 62 63  2  0
 63 64  1  0
 59 65  1  0
 65 66  2  0
 66 67  1  0
 67 68  1  0
 68 69  2  0
 70 71  1  0
 71 72  2  0
 72 73  1  0
 73 74  1  0
 74 75  1  0
 75 76  2  0
 76 77  1  0
 77 78  2  0
 78 79  1  0
 79 80  2  0
 80 81  1  0
 81 82  2  0
 82 83  1  0
 83 84  2  0
 84 85  1  0
 85 86  2  0
 86 87  1  0
 82 88  1  0
 88 89  2  0
 89 90  1  0
 90 91  1  0
 91 92  2  0
 93 94  1  0
 94 95  2  0
 95 96  1  0
 96 97  1  0
 97 98  1  0
 98 99  2  0
 99100  1  0
100101  2  0
101102  1  0
102103  2  0
103104  1  0
104105  2  0
105106  1  0
106107  2  0
107108  1  0
108109  2  0
109110  1  0
105111  1  0
111112  2  0
112113  1  0
113114  1  0
114115  2  0
116117  1  0
117118  2  0
118119  1  0
119120  1  0
120121  1  0
121122  2  0
122123  1  0
123124  2  0
124125  1  0
125126  2  0
126127  1  0
127128  2  0
128129  1  0
129130  2  0
130131  1  0
131132  2  0
132133  1  0
128134  1  0
134135  2  0
135136  1  0
136137  1  0
137138  2  0
  5  1  2  0
 23  6  1  0
 28 24  2  0
 46 29  1  0
 51 47  2  0
 69 52  1  0
 74 70  2  0
 92 75  1  0
 97 93  2  0
115 98  1  0
120116  2  0
138121  1  0
 12  7  1  0
 18 14  1  0
 23 19  1  0
 35 30  1  0
 41 37  1  0
 46 42  1  0
 58 53  1  0
 64 60  1  0
 69 65  1  0
 81 76  1  0
 87 83  1  0
 92 88  1  0
104 99  1  0
110106  1  0
115111  1  0
127122  1  0
133129  1  0
138134  1  0
 17 26  1  0
 40 49  1  0
 63 72  1  0
 86 95  1  0
109118  1  0
  1139  1  0
  2140  1  0
  3141  1  0
  9142  1  0
 10143  1  0
 15144  1  0
 16145  1  0
 24146  1  0
 25147  1  0
 32148  1  0
 33149  1  0
 38150  1  0
 39151  1  0
 47152  1  0
 48153  1  0
 55154  1  0
 56155  1  0
 61156  1  0
 62157  1  0
 70158  1  0
 71159  1  0
 78160  1  0
 79161  1  0
 84162  1  0
 85163  1  0
 93164  1  0
 94165  1  0
101166  1  0
102167  1  0
107168  1  0
108169  1  0
116170  1  0
117171  1  0
124172  1  0
125173  1  0
130174  1  0
131175  1  0
132176  1  0
M  END
>  <_StereochemDone>  (24) 
1

>  <File>  (24) 
C-DAD_Hexamer/C-SSS6-UV.gjf

>  <System_Code>  (24) 
SSS

>  <Unit_Type>  (24) 
Hexamer

>  <Family>  (24) 
chalcogendiazoloquinoxaline

>  <InChIKey>  (24) 
YMIIPCDZWQQJFB-UHFFFAOYSA-N

$$$$
C-SSeS6-UV
     RDKit          3D

176205  0  0  0  0  0  0  0  0999 V2000
  -34.5467    1.4394    0.0002 C   0  0  0  0  0  0  0  0  0  0  0  0
  -35.9395    1.1211    0.0003 C   0  0  0  0  0  0  0  0  0  0  0  0
  -36.1876   -0.2363    0.0003 C   0  0  0  0  0  0  0  0  0  0  0  0
  -34.6846   -1.2063    0.0002 S   0  0  0  0  0  0  0  0  0  0  0  0
  -33.6822    0.3383    0.0002 C   0  0  0  0  0  0  0  0  0  0  0  0
  -32.2275    0.3604    0.0002 C   0  0  0  0  0  0  0  0  0  0  0  0
  -31.4202   -0.8119    0.0002 C   0  0  0  0  0  0  0  0  0  0  0  0
  -32.0701   -2.0379    0.0002 N   0  0  0  0  0  0  0  0  0  0  0  0
  -31.3725   -3.1622    0.0001 C   0  0  0  0  0  0  0  0  0  0  0  0
  -29.9360   -3.1417    0.0001 C   0  0  0  0  0  0  0  0  0  0  0  0
  -29.2743   -1.9942    0.0001 N   0  0  0  0  0  0  0  0  0  0  0  0
  -29.9613   -0.7924    0.0001 C   0  0  0  0  0  0  0  0  0  0  0  0
  -29.1856    0.4045    0.0001 C   0  0  0  0  0  0  0  0  0  0  0  0
  -27.7430    0.4168    0.0001 C   0  0  0  0  0  0  0  0  0  0  0  0
  -26.9021    1.5495    0.0001 C   0  0  0  0  0  0  0  0  0  0  0  0
  -25.5200    1.2804    0.0001 C   0  0  0  0  0  0  0  0  0  0  0  0
  -25.1950   -0.0837    0.0001 C   0  0  0  0  0  0  0  0  0  0  0  0
  -26.7108   -1.1002    0.0001 S   0  0  0  0  0  0  0  0  0  0  0  0
  -29.9744    1.6309    0.0001 C   0  0  0  0  0  0  0  0  0  0  0  0
  -29.4179    2.8574    0.0001 N   0  0  0  0  0  0  0  0  0  0  0  0
  -30.7643    4.1409    0.0002 Se  0  0  0  0  0  2  0  0  0  0  0  0
  -32.0707    2.8183    0.0002 N   0  0  0  0  0  0  0  0  0  0  0  0
  -31.4764    1.6061    0.0002 C   0  0  0  0  0  0  0  0  0  0  0  0
  -22.1981   -2.3167   -0.0000 C   0  0  0  0  0  0  0  0  0  0  0  0
  -23.5786   -2.0466    0.0000 C   0  0  0  0  0  0  0  0  0  0  0  0
  -23.9036   -0.6816    0.0000 C   0  0  0  0  0  0  0  0  0  0  0  0
  -22.3880    0.3351    0.0000 S   0  0  0  0  0  0  0  0  0  0  0  0
  -21.3547   -1.1828   -0.0000 C   0  0  0  0  0  0  0  0  0  0  0  0
  -19.9164   -1.1715   -0.0000 C   0  0  0  0  0  0  0  0  0  0  0  0
  -19.1414    0.0324   -0.0000 C   0  0  0  0  0  0  0  0  0  0  0  0
  -19.8281    1.2310   -0.0000 N   0  0  0  0  0  0  0  0  0  0  0  0
  -19.1649    2.3818   -0.0000 C   0  0  0  0  0  0  0  0  0  0  0  0
  -17.7346    2.4037   -0.0000 C   0  0  0  0  0  0  0  0  0  0  0  0
  -17.0373    1.2728   -0.0000 N   0  0  0  0  0  0  0  0  0  0  0  0
  -17.6872    0.0549   -0.0000 C   0  0  0  0  0  0  0  0  0  0  0  0
  -16.8752   -1.1252   -0.0001 C   0  0  0  0  0  0  0  0  0  0  0  0
  -15.4395   -1.0909   -0.0001 C   0  0  0  0  0  0  0  0  0  0  0  0
  -14.5600   -2.2002   -0.0001 C   0  0  0  0  0  0  0  0  0  0  0  0
  -13.1912   -1.8893   -0.0001 C   0  0  0  0  0  0  0  0  0  0  0  0
  -12.9060   -0.5122   -0.0001 C   0  0  0  0  0  0  0  0  0  0  0  0
  -14.4544    0.4582   -0.0001 S   0  0  0  0  0  0  0  0  0  0  0  0
  -17.6260   -2.3769   -0.0001 C   0  0  0  0  0  0  0  0  0  0  0  0
  -17.0327   -3.5850   -0.0001 N   0  0  0  0  0  0  0  0  0  0  0  0
  -18.3394   -4.9130   -0.0001 Se  0  0  0  0  0  2  0  0  0  0  0  0
  -19.6849   -3.6250   -0.0000 N   0  0  0  0  0  0  0  0  0  0  0  0
  -19.1281   -2.3990   -0.0000 C   0  0  0  0  0  0  0  0  0  0  0  0
   -9.9848    1.8099   -0.0001 C   0  0  0  0  0  0  0  0  0  0  0  0
  -11.3527    1.4980   -0.0001 C   0  0  0  0  0  0  0  0  0  0  0  0
  -11.6372    0.1204   -0.0001 C   0  0  0  0  0  0  0  0  0  0  0  0
  -10.0884   -0.8493   -0.0001 S   0  0  0  0  0  0  0  0  0  0  0  0
   -9.1038    0.7008   -0.0001 C   0  0  0  0  0  0  0  0  0  0  0  0
   -7.6695    0.7364   -0.0001 C   0  0  0  0  0  0  0  0  0  0  0  0
   -6.8567   -0.4452   -0.0001 C   0  0  0  0  0  0  0  0  0  0  0  0
   -7.5059   -1.6624   -0.0001 N   0  0  0  0  0  0  0  0  0  0  0  0
   -6.8073   -2.7939   -0.0001 C   0  0  0  0  0  0  0  0  0  0  0  0
   -5.3789   -2.7715   -0.0001 C   0  0  0  0  0  0  0  0  0  0  0  0
   -4.7164   -1.6184   -0.0001 N   0  0  0  0  0  0  0  0  0  0  0  0
   -5.4036   -0.4225   -0.0001 C   0  0  0  0  0  0  0  0  0  0  0  0
   -4.6286    0.7845   -0.0001 C   0  0  0  0  0  0  0  0  0  0  0  0
   -3.1946    0.7943   -0.0001 C   0  0  0  0  0  0  0  0  0  0  0  0
   -2.3490    1.9317   -0.0001 C   0  0  0  0  0  0  0  0  0  0  0  0
   -0.9726    1.6639   -0.0001 C   0  0  0  0  0  0  0  0  0  0  0  0
   -0.6436    0.2954   -0.0001 C   0  0  0  0  0  0  0  0  0  0  0  0
   -2.1614   -0.7235   -0.0001 S   0  0  0  0  0  0  0  0  0  0  0  0
   -5.4179    2.0128   -0.0001 C   0  0  0  0  0  0  0  0  0  0  0  0
   -4.8622    3.2383   -0.0001 N   0  0  0  0  0  0  0  0  0  0  0  0
   -6.2088    4.5269   -0.0001 Se  0  0  0  0  0  2  0  0  0  0  0  0
   -7.5143    3.1964   -0.0001 N   0  0  0  0  0  0  0  0  0  0  0  0
   -6.9199    1.9890   -0.0001 C   0  0  0  0  0  0  0  0  0  0  0  0
    2.3490   -1.9316   -0.0001 C   0  0  0  0  0  0  0  0  0  0  0  0
    0.9726   -1.6638   -0.0001 C   0  0  0  0  0  0  0  0  0  0  0  0
    0.6436   -0.2952   -0.0001 C   0  0  0  0  0  0  0  0  0  0  0  0
    2.1614    0.7237   -0.0001 S   0  0  0  0  0  0  0  0  0  0  0  0
    3.1946   -0.7942   -0.0001 C   0  0  0  0  0  0  0  0  0  0  0  0
    4.6286   -0.7844   -0.0001 C   0  0  0  0  0  0  0  0  0  0  0  0
    5.4037    0.4226   -0.0001 C   0  0  0  0  0  0  0  0  0  0  0  0
    4.7164    1.6185   -0.0001 N   0  0  0  0  0  0  0  0  0  0  0  0
    5.3789    2.7717   -0.0001 C   0  0  0  0  0  0  0  0  0  0  0  0
    6.8074    2.7941   -0.0001 C   0  0  0  0  0  0  0  0  0  0  0  0
    7.5059    1.6625   -0.0001 N   0  0  0  0  0  0  0  0  0  0  0  0
    6.8567    0.4454   -0.0001 C   0  0  0  0  0  0  0  0  0  0  0  0
    7.6695   -0.7362   -0.0001 C   0  0  0  0  0  0  0  0  0  0  0  0
    9.1038   -0.7006   -0.0001 C   0  0  0  0  0  0  0  0  0  0  0  0
    9.9847   -1.8098   -0.0001 C   0  0  0  0  0  0  0  0  0  0  0  0
   11.3527   -1.4979   -0.0001 C   0  0  0  0  0  0  0  0  0  0  0  0
   11.6372   -0.1203   -0.0001 C   0  0  0  0  0  0  0  0  0  0  0  0
   10.0884    0.8494   -0.0001 S   0  0  0  0  0  0  0  0  0  0  0  0
    6.9199   -1.9889   -0.0001 C   0  0  0  0  0  0  0  0  0  0  0  0
    7.5143   -3.1963   -0.0001 N   0  0  0  0  0  0  0  0  0  0  0  0
    6.2088   -4.5267   -0.0001 Se  0  0  0  0  0  2  0  0  0  0  0  0
    4.8622   -3.2381   -0.0001 N   0  0  0  0  0  0  0  0  0  0  0  0
    5.4179   -2.0127   -0.0001 C   0  0  0  0  0  0  0  0  0  0  0  0
   14.5600    2.2003   -0.0000 C   0  0  0  0  0  0  0  0  0  0  0  0
   13.1912    1.8894   -0.0001 C   0  0  0  0  0  0  0  0  0  0  0  0
   12.9060    0.5122   -0.0001 C   0  0  0  0  0  0  0  0  0  0  0  0
   14.4544   -0.4581   -0.0001 S   0  0  0  0  0  0  0  0  0  0  0  0
   15.4395    1.0910   -0.0000 C   0  0  0  0  0  0  0  0  0  0  0  0
   16.8752    1.1252   -0.0000 C   0  0  0  0  0  0  0  0  0  0  0  0
   17.6872   -0.0549   -0.0000 C   0  0  0  0  0  0  0  0  0  0  0  0
   17.0372   -1.2727   -0.0001 N   0  0  0  0  0  0  0  0  0  0  0  0
   17.7346   -2.4036   -0.0001 C   0  0  0  0  0  0  0  0  0  0  0  0
   19.1649   -2.3818   -0.0000 C   0  0  0  0  0  0  0  0  0  0  0  0
   19.8281   -1.2309   -0.0000 N   0  0  0  0  0  0  0  0  0  0  0  0
   19.1414   -0.0324   -0.0000 C   0  0  0  0  0  0  0  0  0  0  0  0
   19.9164    1.1715   -0.0000 C   0  0  0  0  0  0  0  0  0  0  0  0
   21.3548    1.1828    0.0000 C   0  0  0  0  0  0  0  0  0  0  0  0
   22.1982    2.3167    0.0000 C   0  0  0  0  0  0  0  0  0  0  0  0
   23.5786    2.0466    0.0000 C   0  0  0  0  0  0  0  0  0  0  0  0
   23.9036    0.6816    0.0000 C   0  0  0  0  0  0  0  0  0  0  0  0
   22.3880   -0.3352    0.0000 S   0  0  0  0  0  0  0  0  0  0  0  0
   19.1281    2.3990   -0.0000 C   0  0  0  0  0  0  0  0  0  0  0  0
   19.6849    3.6250    0.0000 N   0  0  0  0  0  0  0  0  0  0  0  0
   18.3395    4.9131    0.0000 Se  0  0  0  0  0  2  0  0  0  0  0  0
   17.0328    3.5850   -0.0000 N   0  0  0  0  0  0  0  0  0  0  0  0
   17.6260    2.3769   -0.0000 C   0  0  0  0  0  0  0  0  0  0  0  0
   26.9021   -1.5496    0.0000 C   0  0  0  0  0  0  0  0  0  0  0  0
   25.5200   -1.2805    0.0000 C   0  0  0  0  0  0  0  0  0  0  0  0
   25.1950    0.0836    0.0000 C   0  0  0  0  0  0  0  0  0  0  0  0
   26.7108    1.1001    0.0001 S   0  0  0  0  0  0  0  0  0  0  0  0
   27.7430   -0.4169    0.0001 C   0  0  0  0  0  0  0  0  0  0  0  0
   29.1856   -0.4046    0.0001 C   0  0  0  0  0  0  0  0  0  0  0  0
   29.9613    0.7923    0.0001 C   0  0  0  0  0  0  0  0  0  0  0  0
   29.2743    1.9941    0.0001 N   0  0  0  0  0  0  0  0  0  0  0  0
   29.9360    3.1415    0.0001 C   0  0  0  0  0  0  0  0  0  0  0  0
   31.3725    3.1620    0.0002 C   0  0  0  0  0  0  0  0  0  0  0  0
   32.0702    2.0378    0.0002 N   0  0  0  0  0  0  0  0  0  0  0  0
   31.4202    0.8118    0.0001 C   0  0  0  0  0  0  0  0  0  0  0  0
   32.2275   -0.3605    0.0001 C   0  0  0  0  0  0  0  0  0  0  0  0
   33.6822   -0.3385    0.0002 C   0  0  0  0  0  0  0  0  0  0  0  0
   34.5466   -1.4396    0.0002 C   0  0  0  0  0  0  0  0  0  0  0  0
   35.9395   -1.1213    0.0002 C   0  0  0  0  0  0  0  0  0  0  0  0
   36.1876    0.2360    0.0002 C   0  0  0  0  0  0  0  0  0  0  0  0
   34.6846    1.2060    0.0002 S   0  0  0  0  0  0  0  0  0  0  0  0
   31.4764   -1.6062    0.0001 C   0  0  0  0  0  0  0  0  0  0  0  0
   32.0707   -2.8185    0.0001 N   0  0  0  0  0  0  0  0  0  0  0  0
   30.7642   -4.1411    0.0001 Se  0  0  0  0  0  2  0  0  0  0  0  0
   29.4179   -2.8575    0.0001 N   0  0  0  0  0  0  0  0  0  0  0  0
   29.9744   -1.6311    0.0001 C   0  0  0  0  0  0  0  0  0  0  0  0
  -34.1641    2.4494    0.0002 H   0  0  0  0  0  0  0  0  0  0  0  0
  -36.7184    1.8759    0.0003 H   0  0  0  0  0  0  0  0  0  0  0  0
  -37.1438   -0.7422    0.0003 H   0  0  0  0  0  0  0  0  0  0  0  0
  -31.9212   -4.1000    0.0001 H   0  0  0  0  0  0  0  0  0  0  0  0
  -29.3588   -4.0619    0.0001 H   0  0  0  0  0  0  0  0  0  0  0  0
  -27.3204    2.5452    0.0001 H   0  0  0  0  0  0  0  0  0  0  0  0
  -24.7685    2.0631    0.0001 H   0  0  0  0  0  0  0  0  0  0  0  0
  -21.7793   -3.3122   -0.0000 H   0  0  0  0  0  0  0  0  0  0  0  0
  -24.3308   -2.8287    0.0000 H   0  0  0  0  0  0  0  0  0  0  0  0
  -19.7442    3.3005    0.0000 H   0  0  0  0  0  0  0  0  0  0  0  0
  -17.1831    3.3392   -0.0000 H   0  0  0  0  0  0  0  0  0  0  0  0
  -14.9495   -3.2076   -0.0001 H   0  0  0  0  0  0  0  0  0  0  0  0
  -12.4153   -2.6479   -0.0001 H   0  0  0  0  0  0  0  0  0  0  0  0
   -9.5955    2.8174   -0.0001 H   0  0  0  0  0  0  0  0  0  0  0  0
  -12.1293    2.2559   -0.0001 H   0  0  0  0  0  0  0  0  0  0  0  0
   -7.3590   -3.7294   -0.0001 H   0  0  0  0  0  0  0  0  0  0  0  0
   -4.7982   -3.6892   -0.0001 H   0  0  0  0  0  0  0  0  0  0  0  0
   -2.7708    2.9261   -0.0001 H   0  0  0  0  0  0  0  0  0  0  0  0
   -0.2206    2.4462   -0.0001 H   0  0  0  0  0  0  0  0  0  0  0  0
    2.7708   -2.9259   -0.0001 H   0  0  0  0  0  0  0  0  0  0  0  0
    0.2206   -2.4461   -0.0001 H   0  0  0  0  0  0  0  0  0  0  0  0
    4.7982    3.6893   -0.0001 H   0  0  0  0  0  0  0  0  0  0  0  0
    7.3591    3.7295   -0.0001 H   0  0  0  0  0  0  0  0  0  0  0  0
    9.5955   -2.8173   -0.0001 H   0  0  0  0  0  0  0  0  0  0  0  0
   12.1292   -2.2558   -0.0001 H   0  0  0  0  0  0  0  0  0  0  0  0
   14.9495    3.2077   -0.0000 H   0  0  0  0  0  0  0  0  0  0  0  0
   12.4153    2.6479   -0.0001 H   0  0  0  0  0  0  0  0  0  0  0  0
   17.1830   -3.3392   -0.0001 H   0  0  0  0  0  0  0  0  0  0  0  0
   19.7442   -3.3005   -0.0001 H   0  0  0  0  0  0  0  0  0  0  0  0
   21.7793    3.3122    0.0000 H   0  0  0  0  0  0  0  0  0  0  0  0
   24.3308    2.8286    0.0001 H   0  0  0  0  0  0  0  0  0  0  0  0
   27.3204   -2.5453    0.0000 H   0  0  0  0  0  0  0  0  0  0  0  0
   24.7685   -2.0631    0.0000 H   0  0  0  0  0  0  0  0  0  0  0  0
   29.3589    4.0618    0.0001 H   0  0  0  0  0  0  0  0  0  0  0  0
   31.9212    4.0999    0.0002 H   0  0  0  0  0  0  0  0  0  0  0  0
   34.1640   -2.4496    0.0001 H   0  0  0  0  0  0  0  0  0  0  0  0
   36.7184   -1.8761    0.0002 H   0  0  0  0  0  0  0  0  0  0  0  0
   37.1439    0.7420    0.0003 H   0  0  0  0  0  0  0  0  0  0  0  0
  1  2  1  0
  2  3  2  0
  3  4  1  0
  4  5  1  0
  5  6  1  0
  6  7  2  0
  7  8  1  0
  8  9  2  0
  9 10  1  0
 10 11  2  0
 11 12  1  0
 12 13  2  0
 13 14  1  0
 14 15  2  0
 15 16  1  0
 16 17  2  0
 17 18  1  0
 13 19  1  0
 19 20  2  0
 20 21  1  0
 21 22  1  0
 22 23  2  0
 24 25  1  0
 25 26  2  0
 26 27  1  0
 27 28  1  0
 28 29  1  0
 29 30  2  0
 30 31  1  0
 31 32  2  0
 32 33  1  0
 33 34  2  0
 34 35  1  0
 35 36  2  0
 36 37  1  0
 37 38  2  0
 38 39  1  0
 39 40  2  0
 40 41  1  0
 36 42  1  0
 42 43  2  0
 43 44  1  0
 44 45  1  0
 45 46  2  0
 47 48  1  0
 48 49  2  0
 49 50  1  0
 50 51  1  0
 51 52  1  0
 52 53  2  0
 53 54  1  0
 54 55  2  0
 55 56  1  0
 56 57  2  0
 57 58  1  0
 58 59  2  0
 59 60  1  0
 60 61  2  0
 61 62  1  0
 62 63  2  0
 63 64  1  0
 59 65  1  0
 65 66  2  0
 66 67  1  0
 67 68  1  0
 68 69  2  0
 70 71  1  0
 71 72  2  0
 72 73  1  0
 73 74  1  0
 74 75  1  0
 75 76  2  0
 76 77  1  0
 77 78  2  0
 78 79  1  0
 79 80  2  0
 80 81  1  0
 81 82  2  0
 82 83  1  0
 83 84  2  0
 84 85  1  0
 85 86  2  0
 86 87  1  0
 82 88  1  0
 88 89  2  0
 89 90  1  0
 90 91  1  0
 91 92  2  0
 93 94  1  0
 94 95  2  0
 95 96  1  0
 96 97  1  0
 97 98  1  0
 98 99  2  0
 99100  1  0
100101  2  0
101102  1  0
102103  2  0
103104  1  0
104105  2  0
105106  1  0
106107  2  0
107108  1  0
108109  2  0
109110  1  0
105111  1  0
111112  2  0
112113  1  0
113114  1  0
114115  2  0
116117  1  0
117118  2  0
118119  1  0
119120  1  0
120121  1  0
121122  2  0
122123  1  0
123124  2  0
124125  1  0
125126  2  0
126127  1  0
127128  2  0
128129  1  0
129130  2  0
130131  1  0
131132  2  0
132133  1  0
128134  1  0
134135  2  0
135136  1  0
136137  1  0
137138  2  0
  5  1  2  0
 23  6  1  0
 28 24  2  0
 46 29  1  0
 51 47  2  0
 69 52  1  0
 74 70  2  0
 92 75  1  0
 97 93  2  0
115 98  1  0
120116  2  0
138121  1  0
 12  7  1  0
 18 14  1  0
 23 19  1  0
 35 30  1  0
 41 37  1  0
 46 42  1  0
 58 53  1  0
 64 60  1  0
 69 65  1  0
 81 76  1  0
 87 83  1  0
 92 88  1  0
104 99  1  0
110106  1  0
115111  1  0
127122  1  0
133129  1  0
138134  1  0
 17 26  1  0
 40 49  1  0
 63 72  1  0
 86 95  1  0
109118  1  0
  1139  1  0
  2140  1  0
  3141  1  0
  9142  1  0
 10143  1  0
 15144  1  0
 16145  1  0
 24146  1  0
 25147  1  0
 32148  1  0
 33149  1  0
 38150  1  0
 39151  1  0
 47152  1  0
 48153  1  0
 55154  1  0
 56155  1  0
 61156  1  0
 62157  1  0
 70158  1  0
 71159  1  0
 78160  1  0
 79161  1  0
 84162  1  0
 85163  1  0
 93164  1  0
 94165  1  0
101166  1  0
102167  1  0
107168  1  0
108169  1  0
116170  1  0
117171  1  0
124172  1  0
125173  1  0
130174  1  0
131175  1  0
132176  1  0
M  END
>  <_StereochemDone>  (25) 
1

>  <File>  (25) 
C-DAD_Hexamer/C-SSeS6-UV.gjf

>  <System_Code>  (25) 
SSeS

>  <Unit_Type>  (25) 
Hexamer

>  <Family>  (25) 
chalcogendiazoloquinoxaline

>  <InChIKey>  (25) 
FWCXCONAOMJXNL-UHFFFAOYSA-N

$$$$
C-STeS6-UV
     RDKit          3D

176205  0  0  0  0  0  0  0  0999 V2000
   34.5324    1.2859    0.0008 C   0  0  0  0  0  0  0  0  0  0  0  0
   35.9209    0.9490    0.0009 C   0  0  0  0  0  0  0  0  0  0  0  0
   36.1512   -0.4114    0.0009 C   0  0  0  0  0  0  0  0  0  0  0  0
   34.6347   -1.3611    0.0009 S   0  0  0  0  0  0  0  0  0  0  0  0
   33.6507    0.1984    0.0008 C   0  0  0  0  0  0  0  0  0  0  0  0
   32.1950    0.2387    0.0007 C   0  0  0  0  0  0  0  0  0  0  0  0
   31.3824   -0.9294    0.0006 C   0  0  0  0  0  0  0  0  0  0  0  0
   32.0259   -2.1586    0.0007 N   0  0  0  0  0  0  0  0  0  0  0  0
   31.3246   -3.2809    0.0006 C   0  0  0  0  0  0  0  0  0  0  0  0
   29.8892   -3.2545    0.0006 C   0  0  0  0  0  0  0  0  0  0  0  0
   29.2338   -2.1030    0.0005 N   0  0  0  0  0  0  0  0  0  0  0  0
   29.9245   -0.9042    0.0005 C   0  0  0  0  0  0  0  0  0  0  0  0
   29.1532    0.2957    0.0005 C   0  0  0  0  0  0  0  0  0  0  0  0
   27.7110    0.3020    0.0004 C   0  0  0  0  0  0  0  0  0  0  0  0
   26.8616    1.4305    0.0003 C   0  0  0  0  0  0  0  0  0  0  0  0
   25.4822    1.1561    0.0003 C   0  0  0  0  0  0  0  0  0  0  0  0
   25.1614   -0.2106    0.0003 C   0  0  0  0  0  0  0  0  0  0  0  0
   26.6833   -1.2209    0.0003 S   0  0  0  0  0  0  0  0  0  0  0  0
   29.9406    1.5309    0.0005 C   0  0  0  0  0  0  0  0  0  0  0  0
   29.3583    2.7415    0.0005 N   0  0  0  0  0  0  0  0  0  0  0  0
   30.7523    4.1901    0.0006 Te  0  0  0  0  0  2  0  0  0  0  0  0
   32.0879    2.6893    0.0006 N   0  0  0  0  0  0  0  0  0  0  0  0
   31.4574    1.4988    0.0006 C   0  0  0  0  0  0  0  0  0  0  0  0
   22.1756   -2.4537    0.0001 C   0  0  0  0  0  0  0  0  0  0  0  0
   23.5529   -2.1786    0.0002 C   0  0  0  0  0  0  0  0  0  0  0  0
   23.8741   -0.8110    0.0002 C   0  0  0  0  0  0  0  0  0  0  0  0
   22.3529    0.2003    0.0001 S   0  0  0  0  0  0  0  0  0  0  0  0
   21.3234   -1.3235    0.0000 C   0  0  0  0  0  0  0  0  0  0  0  0
   19.8863   -1.3180   -0.0000 C   0  0  0  0  0  0  0  0  0  0  0  0
   19.1166   -0.1089   -0.0001 C   0  0  0  0  0  0  0  0  0  0  0  0
   19.8077    1.0853   -0.0000 N   0  0  0  0  0  0  0  0  0  0  0  0
   19.1512    2.2416   -0.0001 C   0  0  0  0  0  0  0  0  0  0  0  0
   17.7235    2.2705   -0.0001 C   0  0  0  0  0  0  0  0  0  0  0  0
   17.0217    1.1405   -0.0002 N   0  0  0  0  0  0  0  0  0  0  0  0
   17.6644   -0.0791   -0.0001 C   0  0  0  0  0  0  0  0  0  0  0  0
   16.8453   -1.2567   -0.0002 C   0  0  0  0  0  0  0  0  0  0  0  0
   15.4128   -1.2019   -0.0002 C   0  0  0  0  0  0  0  0  0  0  0  0
   14.5129   -2.2993   -0.0003 C   0  0  0  0  0  0  0  0  0  0  0  0
   13.1517   -1.9706   -0.0003 C   0  0  0  0  0  0  0  0  0  0  0  0
   12.8831   -0.5869   -0.0003 C   0  0  0  0  0  0  0  0  0  0  0  0
   14.4476    0.3626   -0.0003 S   0  0  0  0  0  0  0  0  0  0  0  0
   17.5825   -2.5244   -0.0001 C   0  0  0  0  0  0  0  0  0  0  0  0
   16.9533   -3.7100   -0.0002 N   0  0  0  0  0  0  0  0  0  0  0  0
   18.2885   -5.2176   -0.0001 Te  0  0  0  0  0  2  0  0  0  0  0  0
   19.6812   -3.7644   -0.0000 N   0  0  0  0  0  0  0  0  0  0  0  0
   19.0994   -2.5538   -0.0001 C   0  0  0  0  0  0  0  0  0  0  0  0
    9.9990    1.7734   -0.0004 C   0  0  0  0  0  0  0  0  0  0  0  0
   11.3589    1.4430   -0.0004 C   0  0  0  0  0  0  0  0  0  0  0  0
   11.6262    0.0585   -0.0004 C   0  0  0  0  0  0  0  0  0  0  0  0
   10.0610   -0.8897   -0.0004 S   0  0  0  0  0  0  0  0  0  0  0  0
    9.0968    0.6765   -0.0005 C   0  0  0  0  0  0  0  0  0  0  0  0
    7.6663    0.7338   -0.0005 C   0  0  0  0  0  0  0  0  0  0  0  0
    6.8456   -0.4458   -0.0005 C   0  0  0  0  0  0  0  0  0  0  0  0
    7.4869   -1.6646   -0.0005 N   0  0  0  0  0  0  0  0  0  0  0  0
    6.7829   -2.7952   -0.0005 C   0  0  0  0  0  0  0  0  0  0  0  0
    5.3579   -2.7651   -0.0005 C   0  0  0  0  0  0  0  0  0  0  0  0
    4.7027   -1.6052   -0.0005 N   0  0  0  0  0  0  0  0  0  0  0  0
    5.3953   -0.4152   -0.0005 C   0  0  0  0  0  0  0  0  0  0  0  0
    4.6256    0.7987   -0.0005 C   0  0  0  0  0  0  0  0  0  0  0  0
    3.1951    0.8027   -0.0006 C   0  0  0  0  0  0  0  0  0  0  0  0
    2.3404    1.9386   -0.0006 C   0  0  0  0  0  0  0  0  0  0  0  0
    0.9686    1.6676   -0.0006 C   0  0  0  0  0  0  0  0  0  0  0  0
    0.6410    0.2948   -0.0006 C   0  0  0  0  0  0  0  0  0  0  0  0
    2.1649   -0.7205   -0.0006 S   0  0  0  0  0  0  0  0  0  0  0  0
    5.4148    2.0356   -0.0005 C   0  0  0  0  0  0  0  0  0  0  0  0
    4.8352    3.2457   -0.0005 N   0  0  0  0  0  0  0  0  0  0  0  0
    6.2303    4.6990   -0.0005 Te  0  0  0  0  0  2  0  0  0  0  0  0
    7.5626    3.1875   -0.0005 N   0  0  0  0  0  0  0  0  0  0  0  0
    6.9314    2.0031   -0.0005 C   0  0  0  0  0  0  0  0  0  0  0  0
   -2.3403   -1.9380   -0.0006 C   0  0  0  0  0  0  0  0  0  0  0  0
   -0.9686   -1.6670   -0.0006 C   0  0  0  0  0  0  0  0  0  0  0  0
   -0.6409   -0.2942   -0.0006 C   0  0  0  0  0  0  0  0  0  0  0  0
   -2.1649    0.7211   -0.0006 S   0  0  0  0  0  0  0  0  0  0  0  0
   -3.1951   -0.8021   -0.0006 C   0  0  0  0  0  0  0  0  0  0  0  0
   -4.6256   -0.7982   -0.0005 C   0  0  0  0  0  0  0  0  0  0  0  0
   -5.3953    0.4157   -0.0005 C   0  0  0  0  0  0  0  0  0  0  0  0
   -4.7027    1.6058   -0.0005 N   0  0  0  0  0  0  0  0  0  0  0  0
   -5.3579    2.7656   -0.0005 C   0  0  0  0  0  0  0  0  0  0  0  0
   -6.7830    2.7958   -0.0005 C   0  0  0  0  0  0  0  0  0  0  0  0
   -7.4869    1.6651   -0.0005 N   0  0  0  0  0  0  0  0  0  0  0  0
   -6.8456    0.4463   -0.0005 C   0  0  0  0  0  0  0  0  0  0  0  0
   -7.6663   -0.7332   -0.0005 C   0  0  0  0  0  0  0  0  0  0  0  0
   -9.0967   -0.6760   -0.0005 C   0  0  0  0  0  0  0  0  0  0  0  0
   -9.9990   -1.7730   -0.0004 C   0  0  0  0  0  0  0  0  0  0  0  0
  -11.3589   -1.4425   -0.0004 C   0  0  0  0  0  0  0  0  0  0  0  0
  -11.6262   -0.0581   -0.0004 C   0  0  0  0  0  0  0  0  0  0  0  0
  -10.0610    0.8901   -0.0004 S   0  0  0  0  0  0  0  0  0  0  0  0
   -6.9314   -2.0025   -0.0005 C   0  0  0  0  0  0  0  0  0  0  0  0
   -7.5625   -3.1870   -0.0005 N   0  0  0  0  0  0  0  0  0  0  0  0
   -6.2302   -4.6985   -0.0005 Te  0  0  0  0  0  2  0  0  0  0  0  0
   -4.8352   -3.2451   -0.0005 N   0  0  0  0  0  0  0  0  0  0  0  0
   -5.4148   -2.0350   -0.0005 C   0  0  0  0  0  0  0  0  0  0  0  0
  -14.5130    2.2996   -0.0003 C   0  0  0  0  0  0  0  0  0  0  0  0
  -13.1518    1.9709   -0.0003 C   0  0  0  0  0  0  0  0  0  0  0  0
  -12.8831    0.5873   -0.0003 C   0  0  0  0  0  0  0  0  0  0  0  0
  -14.4476   -0.3624   -0.0003 S   0  0  0  0  0  0  0  0  0  0  0  0
  -15.4129    1.2022   -0.0002 C   0  0  0  0  0  0  0  0  0  0  0  0
  -16.8454    1.2569   -0.0002 C   0  0  0  0  0  0  0  0  0  0  0  0
  -17.6644    0.0793   -0.0001 C   0  0  0  0  0  0  0  0  0  0  0  0
  -17.0217   -1.1403   -0.0002 N   0  0  0  0  0  0  0  0  0  0  0  0
  -17.7234   -2.2703   -0.0001 C   0  0  0  0  0  0  0  0  0  0  0  0
  -19.1511   -2.2415   -0.0001 C   0  0  0  0  0  0  0  0  0  0  0  0
  -19.8076   -1.0852   -0.0000 N   0  0  0  0  0  0  0  0  0  0  0  0
  -19.1166    0.1090   -0.0001 C   0  0  0  0  0  0  0  0  0  0  0  0
  -19.8864    1.3181   -0.0000 C   0  0  0  0  0  0  0  0  0  0  0  0
  -21.3234    1.3235    0.0001 C   0  0  0  0  0  0  0  0  0  0  0  0
  -22.1757    2.4536    0.0001 C   0  0  0  0  0  0  0  0  0  0  0  0
  -23.5530    2.1785    0.0002 C   0  0  0  0  0  0  0  0  0  0  0  0
  -23.8742    0.8108    0.0002 C   0  0  0  0  0  0  0  0  0  0  0  0
  -22.3529   -0.2004    0.0001 S   0  0  0  0  0  0  0  0  0  0  0  0
  -19.0995    2.5539   -0.0001 C   0  0  0  0  0  0  0  0  0  0  0  0
  -19.6814    3.7644   -0.0000 N   0  0  0  0  0  0  0  0  0  0  0  0
  -18.2887    5.2177   -0.0001 Te  0  0  0  0  0  2  0  0  0  0  0  0
  -16.9535    3.7102   -0.0002 N   0  0  0  0  0  0  0  0  0  0  0  0
  -17.5826    2.5246   -0.0001 C   0  0  0  0  0  0  0  0  0  0  0  0
  -26.8615   -1.4308    0.0004 C   0  0  0  0  0  0  0  0  0  0  0  0
  -25.4822   -1.1564    0.0003 C   0  0  0  0  0  0  0  0  0  0  0  0
  -25.1614    0.2103    0.0003 C   0  0  0  0  0  0  0  0  0  0  0  0
  -26.6834    1.2206    0.0004 S   0  0  0  0  0  0  0  0  0  0  0  0
  -27.7110   -0.3025    0.0004 C   0  0  0  0  0  0  0  0  0  0  0  0
  -29.1532   -0.2962    0.0005 C   0  0  0  0  0  0  0  0  0  0  0  0
  -29.9245    0.9036    0.0006 C   0  0  0  0  0  0  0  0  0  0  0  0
  -29.2339    2.1025    0.0005 N   0  0  0  0  0  0  0  0  0  0  0  0
  -29.8894    3.2540    0.0006 C   0  0  0  0  0  0  0  0  0  0  0  0
  -31.3249    3.2802    0.0006 C   0  0  0  0  0  0  0  0  0  0  0  0
  -32.0261    2.1579    0.0007 N   0  0  0  0  0  0  0  0  0  0  0  0
  -31.3825    0.9288    0.0007 C   0  0  0  0  0  0  0  0  0  0  0  0
  -32.1949   -0.2394    0.0007 C   0  0  0  0  0  0  0  0  0  0  0  0
  -33.6507   -0.1993    0.0008 C   0  0  0  0  0  0  0  0  0  0  0  0
  -34.5323   -1.2868    0.0008 C   0  0  0  0  0  0  0  0  0  0  0  0
  -35.9209   -0.9500    0.0009 C   0  0  0  0  0  0  0  0  0  0  0  0
  -36.1512    0.4103    0.0009 C   0  0  0  0  0  0  0  0  0  0  0  0
  -34.6348    1.3602    0.0009 S   0  0  0  0  0  0  0  0  0  0  0  0
  -31.4573   -1.4995    0.0006 C   0  0  0  0  0  0  0  0  0  0  0  0
  -32.0877   -2.6900    0.0007 N   0  0  0  0  0  0  0  0  0  0  0  0
  -30.7519   -4.1907    0.0006 Te  0  0  0  0  0  2  0  0  0  0  0  0
  -29.3581   -2.7420    0.0005 N   0  0  0  0  0  0  0  0  0  0  0  0
  -29.9404   -1.5315    0.0006 C   0  0  0  0  0  0  0  0  0  0  0  0
   34.1581    2.2986    0.0008 H   0  0  0  0  0  0  0  0  0  0  0  0
   36.7097    1.6936    0.0009 H   0  0  0  0  0  0  0  0  0  0  0  0
   37.1007   -0.9301    0.0009 H   0  0  0  0  0  0  0  0  0  0  0  0
   31.8705   -4.2205    0.0007 H   0  0  0  0  0  0  0  0  0  0  0  0
   29.3070   -4.1716    0.0005 H   0  0  0  0  0  0  0  0  0  0  0  0
   27.2817    2.4252    0.0004 H   0  0  0  0  0  0  0  0  0  0  0  0
   24.7272    1.9355    0.0002 H   0  0  0  0  0  0  0  0  0  0  0  0
   21.7543   -3.4480    0.0001 H   0  0  0  0  0  0  0  0  0  0  0  0
   24.3086   -2.9575    0.0002 H   0  0  0  0  0  0  0  0  0  0  0  0
   19.7368    3.1563   -0.0000 H   0  0  0  0  0  0  0  0  0  0  0  0
   17.1746    3.2076   -0.0002 H   0  0  0  0  0  0  0  0  0  0  0  0
   14.8956   -3.3092   -0.0002 H   0  0  0  0  0  0  0  0  0  0  0  0
   12.3650   -2.7181   -0.0004 H   0  0  0  0  0  0  0  0  0  0  0  0
    9.6170    2.7836   -0.0004 H   0  0  0  0  0  0  0  0  0  0  0  0
   12.1468    2.1893   -0.0004 H   0  0  0  0  0  0  0  0  0  0  0  0
    7.3317   -3.7324   -0.0005 H   0  0  0  0  0  0  0  0  0  0  0  0
    4.7699   -3.6781   -0.0005 H   0  0  0  0  0  0  0  0  0  0  0  0
    2.7664    2.9310   -0.0006 H   0  0  0  0  0  0  0  0  0  0  0  0
    0.2136    2.4471   -0.0006 H   0  0  0  0  0  0  0  0  0  0  0  0
   -2.7664   -2.9304   -0.0006 H   0  0  0  0  0  0  0  0  0  0  0  0
   -0.2136   -2.4465   -0.0006 H   0  0  0  0  0  0  0  0  0  0  0  0
   -4.7700    3.6787   -0.0005 H   0  0  0  0  0  0  0  0  0  0  0  0
   -7.3317    3.7329   -0.0005 H   0  0  0  0  0  0  0  0  0  0  0  0
   -9.6169   -2.7831   -0.0004 H   0  0  0  0  0  0  0  0  0  0  0  0
  -12.1467   -2.1889   -0.0004 H   0  0  0  0  0  0  0  0  0  0  0  0
  -14.8957    3.3094   -0.0003 H   0  0  0  0  0  0  0  0  0  0  0  0
  -12.3651    2.7184   -0.0004 H   0  0  0  0  0  0  0  0  0  0  0  0
  -17.1744   -3.2074   -0.0001 H   0  0  0  0  0  0  0  0  0  0  0  0
  -19.7366   -3.1562   -0.0000 H   0  0  0  0  0  0  0  0  0  0  0  0
  -21.7545    3.4479    0.0001 H   0  0  0  0  0  0  0  0  0  0  0  0
  -24.3087    2.9573    0.0002 H   0  0  0  0  0  0  0  0  0  0  0  0
  -27.2815   -2.4256    0.0004 H   0  0  0  0  0  0  0  0  0  0  0  0
  -24.7270   -1.9357    0.0002 H   0  0  0  0  0  0  0  0  0  0  0  0
  -29.3073    4.1711    0.0005 H   0  0  0  0  0  0  0  0  0  0  0  0
  -31.8708    4.2197    0.0007 H   0  0  0  0  0  0  0  0  0  0  0  0
  -34.1579   -2.2995    0.0008 H   0  0  0  0  0  0  0  0  0  0  0  0
  -36.7095   -1.6947    0.0009 H   0  0  0  0  0  0  0  0  0  0  0  0
  -37.1007    0.9289    0.0009 H   0  0  0  0  0  0  0  0  0  0  0  0
  1  2  1  0
  2  3  2  0
  3  4  1  0
  4  5  1  0
  5  6  1  0
  6  7  2  0
  7  8  1  0
  8  9  2  0
  9 10  1  0
 10 11  2  0
 11 12  1  0
 12 13  2  0
 13 14  1  0
 14 15  2  0
 15 16  1  0
 16 17  2  0
 17 18  1  0
 13 19  1  0
 19 20  2  0
 20 21  1  0
 21 22  1  0
 22 23  2  0
 24 25  1  0
 25 26  2  0
 26 27  1  0
 27 28  1  0
 28 29  1  0
 29 30  2  0
 30 31  1  0
 31 32  2  0
 32 33  1  0
 33 34  2  0
 34 35  1  0
 35 36  2  0
 36 37  1  0
 37 38  2  0
 38 39  1  0
 39 40  2  0
 40 41  1  0
 36 42  1  0
 42 43  2  0
 43 44  1  0
 44 45  1  0
 45 46  2  0
 47 48  1  0
 48 49  2  0
 49 50  1  0
 50 51  1  0
 51 52  1  0
 52 53  2  0
 53 54  1  0
 54 55  2  0
 55 56  1  0
 56 57  2  0
 57 58  1  0
 58 59  2  0
 59 60  1  0
 60 61  2  0
 61 62  1  0
 62 63  2  0
 63 64  1  0
 59 65  1  0
 65 66  2  0
 66 67  1  0
 67 68  1  0
 68 69  2  0
 70 71  1  0
 71 72  2  0
 72 73  1  0
 73 74  1  0
 74 75  1  0
 75 76  2  0
 76 77  1  0
 77 78  2  0
 78 79  1  0
 79 80  2  0
 80 81  1  0
 81 82  2  0
 82 83  1  0
 83 84  2  0
 84 85  1  0
 85 86  2  0
 86 87  1  0
 82 88  1  0
 88 89  2  0
 89 90  1  0
 90 91  1  0
 91 92  2  0
 93 94  1  0
 94 95  2  0
 95 96  1  0
 96 97  1  0
 97 98  1  0
 98 99  2  0
 99100  1  0
100101  2  0
101102  1  0
102103  2  0
103104  1  0
104105  2  0
105106  1  0
106107  2  0
107108  1  0
108109  2  0
109110  1  0
105111  1  0
111112  2  0
112113  1  0
113114  1  0
114115  2  0
116117  1  0
117118  2  0
118119  1  0
119120  1  0
120121  1  0
121122  2  0
122123  1  0
123124  2  0
124125  1  0
125126  2  0
126127  1  0
127128  2  0
128129  1  0
129130  2  0
130131  1  0
131132  2  0
132133  1  0
128134  1  0
134135  2  0
135136  1  0
136137  1  0
137138  2  0
  5  1  2  0
 23  6  1  0
 28 24  2  0
 46 29  1  0
 51 47  2  0
 69 52  1  0
 74 70  2  0
 92 75  1  0
 97 93  2  0
115 98  1  0
120116  2  0
138121  1  0
 12  7  1  0
 18 14  1  0
 23 19  1  0
 35 30  1  0
 41 37  1  0
 46 42  1  0
 58 53  1  0
 64 60  1  0
 69 65  1  0
 81 76  1  0
 87 83  1  0
 92 88  1  0
104 99  1  0
110106  1  0
115111  1  0
127122  1  0
133129  1  0
138134  1  0
 17 26  1  0
 40 49  1  0
 63 72  1  0
 86 95  1  0
109118  1  0
  1139  1  0
  2140  1  0
  3141  1  0
  9142  1  0
 10143  1  0
 15144  1  0
 16145  1  0
 24146  1  0
 25147  1  0
 32148  1  0
 33149  1  0
 38150  1  0
 39151  1  0
 47152  1  0
 48153  1  0
 55154  1  0
 56155  1  0
 61156  1  0
 62157  1  0
 70158  1  0
 71159  1  0
 78160  1  0
 79161  1  0
 84162  1  0
 85163  1  0
 93164  1  0
 94165  1  0
101166  1  0
102167  1  0
107168  1  0
108169  1  0
116170  1  0
117171  1  0
124172  1  0
125173  1  0
130174  1  0
131175  1  0
132176  1  0
M  END
>  <_StereochemDone>  (26) 
1

>  <File>  (26) 
C-DAD_Hexamer/C-STeS6-UV.gjf

>  <System_Code>  (26) 
STeS

>  <Unit_Type>  (26) 
Hexamer

>  <Family>  (26) 
chalcogendiazoloquinoxaline

>  <InChIKey>  (26) 
PBUMCEPSQNAJKM-UHFFFAOYSA-N

$$$$
C-SeOSe6-UV
     RDKit          3D

176205  0  0  0  0  0  0  0  0999 V2000
   34.9006    1.7470    0.0004 C   0  0  0  0  0  0  0  0  0  0  0  0
   36.3088    1.5106    0.0004 C   0  0  0  0  0  0  0  0  0  0  0  0
   36.6758    0.1766    0.0004 C   0  0  0  0  0  0  0  0  0  0  0  0
   35.1770   -0.9986    0.0004 Se  0  0  0  0  0  2  0  0  0  0  0  0
   34.0777    0.6106    0.0004 C   0  0  0  0  0  0  0  0  0  0  0  0
   32.6361    0.6030    0.0003 C   0  0  0  0  0  0  0  0  0  0  0  0
   31.8434   -0.5885    0.0003 C   0  0  0  0  0  0  0  0  0  0  0  0
   32.5079   -1.8007    0.0004 N   0  0  0  0  0  0  0  0  0  0  0  0
   31.8170   -2.9372    0.0004 C   0  0  0  0  0  0  0  0  0  0  0  0
   30.3867   -2.9326    0.0003 C   0  0  0  0  0  0  0  0  0  0  0  0
   29.7101   -1.7845    0.0003 N   0  0  0  0  0  0  0  0  0  0  0  0
   30.3863   -0.5852    0.0003 C   0  0  0  0  0  0  0  0  0  0  0  0
   29.5960    0.6129    0.0003 C   0  0  0  0  0  0  0  0  0  0  0  0
   28.1721    0.6103    0.0003 C   0  0  0  0  0  0  0  0  0  0  0  0
   27.3366    1.7604    0.0003 C   0  0  0  0  0  0  0  0  0  0  0  0
   25.9572    1.5368    0.0002 C   0  0  0  0  0  0  0  0  0  0  0  0
   25.5382    0.1824    0.0002 C   0  0  0  0  0  0  0  0  0  0  0  0
   27.0982   -1.0019    0.0003 Se  0  0  0  0  0  2  0  0  0  0  0  0
   30.3885    1.8237    0.0003 C   0  0  0  0  0  0  0  0  0  0  0  0
   29.9498    3.0967    0.0003 N   0  0  0  0  0  0  0  0  0  0  0  0
   31.1281    3.8937    0.0003 O   0  0  0  0  0  0  0  0  0  0  0  0
   32.3002    3.0893    0.0003 N   0  0  0  0  0  0  0  0  0  0  0  0
   31.8514    1.8151    0.0003 C   0  0  0  0  0  0  0  0  0  0  0  0
   22.4248   -1.8813    0.0001 C   0  0  0  0  0  0  0  0  0  0  0  0
   23.7988   -1.6515    0.0002 C   0  0  0  0  0  0  0  0  0  0  0  0
   24.2146   -0.2931    0.0002 C   0  0  0  0  0  0  0  0  0  0  0  0
   22.6527    0.8889    0.0001 Se  0  0  0  0  0  2  0  0  0  0  0  0
   21.5802   -0.7293    0.0001 C   0  0  0  0  0  0  0  0  0  0  0  0
   20.1670   -0.7375    0.0000 C   0  0  0  0  0  0  0  0  0  0  0  0
   19.3762    0.4746    0.0000 C   0  0  0  0  0  0  0  0  0  0  0  0
   20.0495    1.6676    0.0000 N   0  0  0  0  0  0  0  0  0  0  0  0
   19.3655    2.8223   -0.0000 C   0  0  0  0  0  0  0  0  0  0  0  0
   17.9488    2.8264   -0.0001 C   0  0  0  0  0  0  0  0  0  0  0  0
   17.2603    1.6732   -0.0001 N   0  0  0  0  0  0  0  0  0  0  0  0
   17.9277    0.4792   -0.0001 C   0  0  0  0  0  0  0  0  0  0  0  0
   17.1285   -0.7298   -0.0001 C   0  0  0  0  0  0  0  0  0  0  0  0
   15.7210   -0.7096   -0.0001 C   0  0  0  0  0  0  0  0  0  0  0  0
   14.8652   -1.8624   -0.0001 C   0  0  0  0  0  0  0  0  0  0  0  0
   13.4996   -1.6278   -0.0001 C   0  0  0  0  0  0  0  0  0  0  0  0
   13.0854   -0.2593   -0.0002 C   0  0  0  0  0  0  0  0  0  0  0  0
   14.6630    0.9164   -0.0002 Se  0  0  0  0  0  2  0  0  0  0  0  0
   17.9142   -1.9520   -0.0000 C   0  0  0  0  0  0  0  0  0  0  0  0
   17.4664   -3.2179   -0.0000 N   0  0  0  0  0  0  0  0  0  0  0  0
   18.6406   -4.0311    0.0000 O   0  0  0  0  0  0  0  0  0  0  0  0
   19.8187   -3.2237    0.0001 N   0  0  0  0  0  0  0  0  0  0  0  0
   19.3762   -1.9543    0.0000 C   0  0  0  0  0  0  0  0  0  0  0  0
    9.9976    1.8189   -0.0003 C   0  0  0  0  0  0  0  0  0  0  0  0
   11.3619    1.5833   -0.0003 C   0  0  0  0  0  0  0  0  0  0  0  0
   11.7758    0.2138   -0.0002 C   0  0  0  0  0  0  0  0  0  0  0  0
   10.1983   -0.9621   -0.0002 Se  0  0  0  0  0  2  0  0  0  0  0  0
    9.1398    0.6651   -0.0003 C   0  0  0  0  0  0  0  0  0  0  0  0
    7.7352    0.6858   -0.0003 C   0  0  0  0  0  0  0  0  0  0  0  0
    6.9370   -0.5278   -0.0003 C   0  0  0  0  0  0  0  0  0  0  0  0
    7.6052   -1.7193   -0.0002 N   0  0  0  0  0  0  0  0  0  0  0  0
    6.9160   -2.8752   -0.0002 C   0  0  0  0  0  0  0  0  0  0  0  0
    5.5031   -2.8728   -0.0002 C   0  0  0  0  0  0  0  0  0  0  0  0
    4.8183   -1.7140   -0.0002 N   0  0  0  0  0  0  0  0  0  0  0  0
    5.4909   -0.5254   -0.0003 C   0  0  0  0  0  0  0  0  0  0  0  0
    4.6966    0.6913   -0.0003 C   0  0  0  0  0  0  0  0  0  0  0  0
    3.2930    0.6747   -0.0003 C   0  0  0  0  0  0  0  0  0  0  0  0
    2.4385    1.8328   -0.0004 C   0  0  0  0  0  0  0  0  0  0  0  0
    1.0748    1.6028   -0.0004 C   0  0  0  0  0  0  0  0  0  0  0  0
    0.6546    0.2332   -0.0003 C   0  0  0  0  0  0  0  0  0  0  0  0
    2.2297   -0.9490   -0.0003 Se  0  0  0  0  0  2  0  0  0  0  0  0
    5.4875    1.9121   -0.0003 C   0  0  0  0  0  0  0  0  0  0  0  0
    5.0443    3.1787   -0.0004 N   0  0  0  0  0  0  0  0  0  0  0  0
    6.2222    3.9894   -0.0004 O   0  0  0  0  0  0  0  0  0  0  0  0
    7.3970    3.1743   -0.0004 N   0  0  0  0  0  0  0  0  0  0  0  0
    6.9490    1.9092   -0.0003 C   0  0  0  0  0  0  0  0  0  0  0  0
   -2.4385   -1.8324   -0.0003 C   0  0  0  0  0  0  0  0  0  0  0  0
   -1.0748   -1.6024   -0.0003 C   0  0  0  0  0  0  0  0  0  0  0  0
   -0.6545   -0.2328   -0.0003 C   0  0  0  0  0  0  0  0  0  0  0  0
   -2.2297    0.9494   -0.0004 Se  0  0  0  0  0  2  0  0  0  0  0  0
   -3.2930   -0.6743   -0.0003 C   0  0  0  0  0  0  0  0  0  0  0  0
   -4.6966   -0.6909   -0.0003 C   0  0  0  0  0  0  0  0  0  0  0  0
   -5.4908    0.5258   -0.0003 C   0  0  0  0  0  0  0  0  0  0  0  0
   -4.8183    1.7144   -0.0003 N   0  0  0  0  0  0  0  0  0  0  0  0
   -5.5032    2.8732   -0.0003 C   0  0  0  0  0  0  0  0  0  0  0  0
   -6.9160    2.8756   -0.0003 C   0  0  0  0  0  0  0  0  0  0  0  0
   -7.6052    1.7196   -0.0003 N   0  0  0  0  0  0  0  0  0  0  0  0
   -6.9370    0.5282   -0.0003 C   0  0  0  0  0  0  0  0  0  0  0  0
   -7.7352   -0.6855   -0.0003 C   0  0  0  0  0  0  0  0  0  0  0  0
   -9.1398   -0.6648   -0.0003 C   0  0  0  0  0  0  0  0  0  0  0  0
   -9.9975   -1.8186   -0.0003 C   0  0  0  0  0  0  0  0  0  0  0  0
  -11.3618   -1.5831   -0.0002 C   0  0  0  0  0  0  0  0  0  0  0  0
  -11.7758   -0.2136   -0.0002 C   0  0  0  0  0  0  0  0  0  0  0  0
  -10.1983    0.9624   -0.0002 Se  0  0  0  0  0  2  0  0  0  0  0  0
   -6.9490   -1.9088   -0.0003 C   0  0  0  0  0  0  0  0  0  0  0  0
   -7.3969   -3.1740   -0.0003 N   0  0  0  0  0  0  0  0  0  0  0  0
   -6.2221   -3.9890   -0.0003 O   0  0  0  0  0  0  0  0  0  0  0  0
   -5.0442   -3.1782   -0.0003 N   0  0  0  0  0  0  0  0  0  0  0  0
   -5.4874   -1.9117   -0.0003 C   0  0  0  0  0  0  0  0  0  0  0  0
  -14.8652    1.8625   -0.0002 C   0  0  0  0  0  0  0  0  0  0  0  0
  -13.4997    1.6280   -0.0002 C   0  0  0  0  0  0  0  0  0  0  0  0
  -13.0854    0.2594   -0.0002 C   0  0  0  0  0  0  0  0  0  0  0  0
  -14.6630   -0.9163   -0.0002 Se  0  0  0  0  0  2  0  0  0  0  0  0
  -15.7210    0.7096   -0.0002 C   0  0  0  0  0  0  0  0  0  0  0  0
  -17.1285    0.7298   -0.0002 C   0  0  0  0  0  0  0  0  0  0  0  0
  -17.9277   -0.4792   -0.0002 C   0  0  0  0  0  0  0  0  0  0  0  0
  -17.2602   -1.6732   -0.0002 N   0  0  0  0  0  0  0  0  0  0  0  0
  -17.9487   -2.8265   -0.0002 C   0  0  0  0  0  0  0  0  0  0  0  0
  -19.3653   -2.8225   -0.0002 C   0  0  0  0  0  0  0  0  0  0  0  0
  -20.0494   -1.6677   -0.0001 N   0  0  0  0  0  0  0  0  0  0  0  0
  -19.3762   -0.4747   -0.0001 C   0  0  0  0  0  0  0  0  0  0  0  0
  -20.1671    0.7373   -0.0001 C   0  0  0  0  0  0  0  0  0  0  0  0
  -21.5802    0.7291   -0.0000 C   0  0  0  0  0  0  0  0  0  0  0  0
  -22.4249    1.8811    0.0000 C   0  0  0  0  0  0  0  0  0  0  0  0
  -23.7989    1.6513    0.0001 C   0  0  0  0  0  0  0  0  0  0  0  0
  -24.2147    0.2928    0.0001 C   0  0  0  0  0  0  0  0  0  0  0  0
  -22.6527   -0.8891   -0.0000 Se  0  0  0  0  0  2  0  0  0  0  0  0
  -19.3762    1.9542   -0.0001 C   0  0  0  0  0  0  0  0  0  0  0  0
  -19.8189    3.2236   -0.0001 N   0  0  0  0  0  0  0  0  0  0  0  0
  -18.6408    4.0310   -0.0001 O   0  0  0  0  0  0  0  0  0  0  0  0
  -17.4665    3.2179   -0.0001 N   0  0  0  0  0  0  0  0  0  0  0  0
  -17.9143    1.9519   -0.0001 C   0  0  0  0  0  0  0  0  0  0  0  0
  -27.3365   -1.7607    0.0001 C   0  0  0  0  0  0  0  0  0  0  0  0
  -25.9572   -1.5370    0.0001 C   0  0  0  0  0  0  0  0  0  0  0  0
  -25.5382   -0.1826    0.0001 C   0  0  0  0  0  0  0  0  0  0  0  0
  -27.0983    1.0016    0.0002 Se  0  0  0  0  0  2  0  0  0  0  0  0
  -28.1721   -0.6105    0.0002 C   0  0  0  0  0  0  0  0  0  0  0  0
  -29.5960   -0.6132    0.0003 C   0  0  0  0  0  0  0  0  0  0  0  0
  -30.3863    0.5849    0.0004 C   0  0  0  0  0  0  0  0  0  0  0  0
  -29.7101    1.7842    0.0004 N   0  0  0  0  0  0  0  0  0  0  0  0
  -30.3868    2.9323    0.0005 C   0  0  0  0  0  0  0  0  0  0  0  0
  -31.8170    2.9369    0.0006 C   0  0  0  0  0  0  0  0  0  0  0  0
  -32.5079    1.8003    0.0006 N   0  0  0  0  0  0  0  0  0  0  0  0
  -31.8434    0.5881    0.0004 C   0  0  0  0  0  0  0  0  0  0  0  0
  -32.6361   -0.6033    0.0004 C   0  0  0  0  0  0  0  0  0  0  0  0
  -34.0777   -0.6109    0.0005 C   0  0  0  0  0  0  0  0  0  0  0  0
  -34.9006   -1.7473    0.0005 C   0  0  0  0  0  0  0  0  0  0  0  0
  -36.3088   -1.5109    0.0006 C   0  0  0  0  0  0  0  0  0  0  0  0
  -36.6758   -0.1769    0.0007 C   0  0  0  0  0  0  0  0  0  0  0  0
  -35.1770    0.9983    0.0006 Se  0  0  0  0  0  2  0  0  0  0  0  0
  -31.8514   -1.8154    0.0003 C   0  0  0  0  0  0  0  0  0  0  0  0
  -32.3002   -3.0896    0.0003 N   0  0  0  0  0  0  0  0  0  0  0  0
  -31.1281   -3.8940    0.0002 O   0  0  0  0  0  0  0  0  0  0  0  0
  -29.9497   -3.0970    0.0002 N   0  0  0  0  0  0  0  0  0  0  0  0
  -30.3885   -1.8240    0.0003 C   0  0  0  0  0  0  0  0  0  0  0  0
   34.4835    2.7463    0.0003 H   0  0  0  0  0  0  0  0  0  0  0  0
   37.0302    2.3219    0.0003 H   0  0  0  0  0  0  0  0  0  0  0  0
   37.6870   -0.2126    0.0004 H   0  0  0  0  0  0  0  0  0  0  0  0
   32.3749   -3.8689    0.0004 H   0  0  0  0  0  0  0  0  0  0  0  0
   29.8186   -3.8575    0.0003 H   0  0  0  0  0  0  0  0  0  0  0  0
   27.7648    2.7551    0.0003 H   0  0  0  0  0  0  0  0  0  0  0  0
   25.2457    2.3582    0.0002 H   0  0  0  0  0  0  0  0  0  0  0  0
   21.9980   -2.8766    0.0001 H   0  0  0  0  0  0  0  0  0  0  0  0
   24.5144   -2.4695    0.0002 H   0  0  0  0  0  0  0  0  0  0  0  0
   19.9363    3.7453    0.0000 H   0  0  0  0  0  0  0  0  0  0  0  0
   17.3819    3.7516   -0.0001 H   0  0  0  0  0  0  0  0  0  0  0  0
   15.2897   -2.8587   -0.0001 H   0  0  0  0  0  0  0  0  0  0  0  0
   12.7786   -2.4411   -0.0001 H   0  0  0  0  0  0  0  0  0  0  0  0
    9.5730    2.8152   -0.0003 H   0  0  0  0  0  0  0  0  0  0  0  0
   12.0836    2.3960   -0.0003 H   0  0  0  0  0  0  0  0  0  0  0  0
    7.4848   -3.7991   -0.0001 H   0  0  0  0  0  0  0  0  0  0  0  0
    4.9308   -3.7945   -0.0002 H   0  0  0  0  0  0  0  0  0  0  0  0
    2.8675    2.8272   -0.0004 H   0  0  0  0  0  0  0  0  0  0  0  0
    0.3560    2.4181   -0.0004 H   0  0  0  0  0  0  0  0  0  0  0  0
   -2.8675   -2.8268   -0.0003 H   0  0  0  0  0  0  0  0  0  0  0  0
   -0.3559   -2.4176   -0.0003 H   0  0  0  0  0  0  0  0  0  0  0  0
   -4.9309    3.7949   -0.0003 H   0  0  0  0  0  0  0  0  0  0  0  0
   -7.4849    3.7995   -0.0003 H   0  0  0  0  0  0  0  0  0  0  0  0
   -9.5729   -2.8149   -0.0003 H   0  0  0  0  0  0  0  0  0  0  0  0
  -12.0835   -2.3958   -0.0002 H   0  0  0  0  0  0  0  0  0  0  0  0
  -15.2899    2.8587   -0.0001 H   0  0  0  0  0  0  0  0  0  0  0  0
  -12.7787    2.4413   -0.0002 H   0  0  0  0  0  0  0  0  0  0  0  0
  -17.3818   -3.7516   -0.0003 H   0  0  0  0  0  0  0  0  0  0  0  0
  -19.9361   -3.7454   -0.0002 H   0  0  0  0  0  0  0  0  0  0  0  0
  -21.9981    2.8764    0.0000 H   0  0  0  0  0  0  0  0  0  0  0  0
  -24.5145    2.4693    0.0001 H   0  0  0  0  0  0  0  0  0  0  0  0
  -27.7648   -2.7554    0.0001 H   0  0  0  0  0  0  0  0  0  0  0  0
  -25.2457   -2.3585    0.0000 H   0  0  0  0  0  0  0  0  0  0  0  0
  -29.8186    3.8572    0.0005 H   0  0  0  0  0  0  0  0  0  0  0  0
  -32.3750    3.8686    0.0006 H   0  0  0  0  0  0  0  0  0  0  0  0
  -34.4835   -2.7466    0.0004 H   0  0  0  0  0  0  0  0  0  0  0  0
  -37.0302   -2.3222    0.0006 H   0  0  0  0  0  0  0  0  0  0  0  0
  -37.6870    0.2123    0.0008 H   0  0  0  0  0  0  0  0  0  0  0  0
  1  2  1  0
  2  3  2  0
  3  4  1  0
  4  5  1  0
  5  6  1  0
  6  7  2  0
  7  8  1  0
  8  9  2  0
  9 10  1  0
 10 11  2  0
 11 12  1  0
 12 13  2  0
 13 14  1  0
 14 15  2  0
 15 16  1  0
 16 17  2  0
 17 18  1  0
 13 19  1  0
 19 20  2  0
 20 21  1  0
 21 22  1  0
 22 23  2  0
 24 25  1  0
 25 26  2  0
 26 27  1  0
 27 28  1  0
 28 29  1  0
 29 30  2  0
 30 31  1  0
 31 32  2  0
 32 33  1  0
 33 34  2  0
 34 35  1  0
 35 36  2  0
 36 37  1  0
 37 38  2  0
 38 39  1  0
 39 40  2  0
 40 41  1  0
 36 42  1  0
 42 43  2  0
 43 44  1  0
 44 45  1  0
 45 46  2  0
 47 48  1  0
 48 49  2  0
 49 50  1  0
 50 51  1  0
 51 52  1  0
 52 53  2  0
 53 54  1  0
 54 55  2  0
 55 56  1  0
 56 57  2  0
 57 58  1  0
 58 59  2  0
 59 60  1  0
 60 61  2  0
 61 62  1  0
 62 63  2  0
 63 64  1  0
 59 65  1  0
 65 66  2  0
 66 67  1  0
 67 68  1  0
 68 69  2  0
 70 71  1  0
 71 72  2  0
 72 73  1  0
 73 74  1  0
 74 75  1  0
 75 76  2  0
 76 77  1  0
 77 78  2  0
 78 79  1  0
 79 80  2  0
 80 81  1  0
 81 82  2  0
 82 83  1  0
 83 84  2  0
 84 85  1  0
 85 86  2  0
 86 87  1  0
 82 88  1  0
 88 89  2  0
 89 90  1  0
 90 91  1  0
 91 92  2  0
 93 94  1  0
 94 95  2  0
 95 96  1  0
 96 97  1  0
 97 98  1  0
 98 99  2  0
 99100  1  0
100101  2  0
101102  1  0
102103  2  0
103104  1  0
104105  2  0
105106  1  0
106107  2  0
107108  1  0
108109  2  0
109110  1  0
105111  1  0
111112  2  0
112113  1  0
113114  1  0
114115  2  0
116117  1  0
117118  2  0
118119  1  0
119120  1  0
120121  1  0
121122  2  0
122123  1  0
123124  2  0
124125  1  0
125126  2  0
126127  1  0
127128  2  0
128129  1  0
129130  2  0
130131  1  0
131132  2  0
132133  1  0
128134  1  0
134135  2  0
135136  1  0
136137  1  0
137138  2  0
  5  1  2  0
 23  6  1  0
 28 24  2  0
 46 29  1  0
 51 47  2  0
 69 52  1  0
 74 70  2  0
 92 75  1  0
 97 93  2  0
115 98  1  0
120116  2  0
138121  1  0
 12  7  1  0
 18 14  1  0
 23 19  1  0
 35 30  1  0
 41 37  1  0
 46 42  1  0
 58 53  1  0
 64 60  1  0
 69 65  1  0
 81 76  1  0
 87 83  1  0
 92 88  1  0
104 99  1  0
110106  1  0
115111  1  0
127122  1  0
133129  1  0
138134  1  0
 17 26  1  0
 40 49  1  0
 63 72  1  0
 86 95  1  0
109118  1  0
  1139  1  0
  2140  1  0
  3141  1  0
  9142  1  0
 10143  1  0
 15144  1  0
 16145  1  0
 24146  1  0
 25147  1  0
 32148  1  0
 33149  1  0
 38150  1  0
 39151  1  0
 47152  1  0
 48153  1  0
 55154  1  0
 56155  1  0
 61156  1  0
 62157  1  0
 70158  1  0
 71159  1  0
 78160  1  0
 79161  1  0
 84162  1  0
 85163  1  0
 93164  1  0
 94165  1  0
101166  1  0
102167  1  0
107168  1  0
108169  1  0
116170  1  0
117171  1  0
124172  1  0
125173  1  0
130174  1  0
131175  1  0
132176  1  0
M  END
>  <_StereochemDone>  (27) 
1

>  <File>  (27) 
C-DAD_Hexamer/C-SeOSe6-UV.gjf

>  <System_Code>  (27) 
SeOSe

>  <Unit_Type>  (27) 
Hexamer

>  <Family>  (27) 
chalcogendiazoloquinoxaline

>  <InChIKey>  (27) 
RHWTYJHBSRCCET-UHFFFAOYSA-N

$$$$
C-SeSSe6-UV
     RDKit          3D

176205  0  0  0  0  0  0  0  0999 V2000
   34.8312    1.6869    0.9495 C   0  0  0  0  0  0  0  0  0  0  0  0
   36.2287    1.4089    1.0437 C   0  0  0  0  0  0  0  0  0  0  0  0
   36.5576    0.0652    1.0520 C   0  0  0  0  0  0  0  0  0  0  0  0
   35.0284   -1.0656    0.9332 Se  0  0  0  0  0  2  0  0  0  0  0  0
   33.9729    0.5790    0.8773 C   0  0  0  0  0  0  0  0  0  0  0  0
   32.5323    0.6061    0.7754 C   0  0  0  0  0  0  0  0  0  0  0  0
   31.7377   -0.5826    0.7044 C   0  0  0  0  0  0  0  0  0  0  0  0
   32.3946   -1.7964    0.7371 N   0  0  0  0  0  0  0  0  0  0  0  0
   31.7054   -2.9340    0.6740 C   0  0  0  0  0  0  0  0  0  0  0  0
   30.2823   -2.9247    0.5716 C   0  0  0  0  0  0  0  0  0  0  0  0
   29.6142   -1.7699    0.5377 N   0  0  0  0  0  0  0  0  0  0  0  0
   30.2895   -0.5748    0.6007 C   0  0  0  0  0  0  0  0  0  0  0  0
   29.5030    0.6264    0.5600 C   0  0  0  0  0  0  0  0  0  0  0  0
   28.0829    0.5988    0.4632 C   0  0  0  0  0  0  0  0  0  0  0  0
   27.2167    1.7301    0.4209 C   0  0  0  0  0  0  0  0  0  0  0  0
   25.8486    1.4779    0.3289 C   0  0  0  0  0  0  0  0  0  0  0  0
   25.4573    0.1127    0.2854 C   0  0  0  0  0  0  0  0  0  0  0  0
   27.0441   -1.0396    0.3728 Se  0  0  0  0  0  2  0  0  0  0  0  0
   30.2811    1.8571    0.6284 C   0  0  0  0  0  0  0  0  0  0  0  0
   29.7397    3.0878    0.6026 N   0  0  0  0  0  0  0  0  0  0  0  0
   31.0435    4.2740    0.7099 S   0  0  0  0  0  0  0  0  0  0  0  0
   32.3291    3.0700    0.7897 N   0  0  0  0  0  0  0  0  0  0  0  0
   31.7702    1.8418    0.7354 C   0  0  0  0  0  0  0  0  0  0  0  0
   22.3984   -2.0126    0.0712 C   0  0  0  0  0  0  0  0  0  0  0  0
   23.7617   -1.7547    0.1557 C   0  0  0  0  0  0  0  0  0  0  0  0
   24.1501   -0.3854    0.1962 C   0  0  0  0  0  0  0  0  0  0  0  0
   22.5617    0.7649    0.1114 Se  0  0  0  0  0  2  0  0  0  0  0  0
   21.5229   -0.8798    0.0324 C   0  0  0  0  0  0  0  0  0  0  0  0
   20.1129   -0.9130   -0.0487 C   0  0  0  0  0  0  0  0  0  0  0  0
   19.3257    0.3026   -0.0834 C   0  0  0  0  0  0  0  0  0  0  0  0
   19.9990    1.4917   -0.0384 N   0  0  0  0  0  0  0  0  0  0  0  0
   19.3226    2.6531   -0.0682 C   0  0  0  0  0  0  0  0  0  0  0  0
   17.9119    2.6617   -0.1460 C   0  0  0  0  0  0  0  0  0  0  0  0
   17.2239    1.5066   -0.1903 N   0  0  0  0  0  0  0  0  0  0  0  0
   17.8846    0.3118   -0.1615 C   0  0  0  0  0  0  0  0  0  0  0  0
   17.0821   -0.8953   -0.2095 C   0  0  0  0  0  0  0  0  0  0  0  0
   15.6767   -0.8415   -0.2730 C   0  0  0  0  0  0  0  0  0  0  0  0
   14.7836   -1.9690   -0.3164 C   0  0  0  0  0  0  0  0  0  0  0  0
   13.4283   -1.6974   -0.3676 C   0  0  0  0  0  0  0  0  0  0  0  0
   13.0493   -0.3163   -0.3751 C   0  0  0  0  0  0  0  0  0  0  0  0
   14.6608    0.8170   -0.3075 Se  0  0  0  0  0  2  0  0  0  0  0  0
   17.8466   -2.1432   -0.1825 C   0  0  0  0  0  0  0  0  0  0  0  0
   17.2895   -3.3622   -0.2252 N   0  0  0  0  0  0  0  0  0  0  0  0
   18.5801   -4.5770   -0.1690 S   0  0  0  0  0  0  0  0  0  0  0  0
   19.8818   -3.3770   -0.0865 N   0  0  0  0  0  0  0  0  0  0  0  0
   19.3363   -2.1504   -0.1031 C   0  0  0  0  0  0  0  0  0  0  0  0
   10.0225    1.8426   -0.4696 C   0  0  0  0  0  0  0  0  0  0  0  0
   11.3772    1.5704   -0.4286 C   0  0  0  0  0  0  0  0  0  0  0  0
   11.7559    0.1886   -0.4190 C   0  0  0  0  0  0  0  0  0  0  0  0
   10.1440   -0.9451   -0.4726 Se  0  0  0  0  0  2  0  0  0  0  0  0
    9.1273    0.7144   -0.4973 C   0  0  0  0  0  0  0  0  0  0  0  0
    7.7232    0.7685   -0.5336 C   0  0  0  0  0  0  0  0  0  0  0  0
    6.9206   -0.4424   -0.5551 C   0  0  0  0  0  0  0  0  0  0  0  0
    7.5825   -1.6352   -0.5462 N   0  0  0  0  0  0  0  0  0  0  0  0
    6.8929   -2.7925   -0.5637 C   0  0  0  0  0  0  0  0  0  0  0  0
    5.4833   -2.7854   -0.5907 C   0  0  0  0  0  0  0  0  0  0  0  0
    4.8054   -1.6210   -0.5996 N   0  0  0  0  0  0  0  0  0  0  0  0
    5.4794   -0.4352   -0.5830 C   0  0  0  0  0  0  0  0  0  0  0  0
    4.6887    0.7839   -0.5924 C   0  0  0  0  0  0  0  0  0  0  0  0
    3.2845    0.7436   -0.6084 C   0  0  0  0  0  0  0  0  0  0  0  0
    2.3999    1.8818   -0.6145 C   0  0  0  0  0  0  0  0  0  0  0  0
    1.0428    1.6240   -0.6215 C   0  0  0  0  0  0  0  0  0  0  0  0
    0.6489    0.2450   -0.6231 C   0  0  0  0  0  0  0  0  0  0  0  0
    2.2513   -0.9055   -0.6188 Se  0  0  0  0  0  2  0  0  0  0  0  0
    5.4669    2.0251   -0.5805 C   0  0  0  0  0  0  0  0  0  0  0  0
    4.9212    3.2491   -0.5938 N   0  0  0  0  0  0  0  0  0  0  0  0
    6.2251    4.4527   -0.5700 S   0  0  0  0  0  0  0  0  0  0  0  0
    7.5165    3.2359   -0.5415 N   0  0  0  0  0  0  0  0  0  0  0  0
    6.9580    2.0174   -0.5507 C   0  0  0  0  0  0  0  0  0  0  0  0
   -2.3999   -1.8817   -0.6145 C   0  0  0  0  0  0  0  0  0  0  0  0
   -1.0428   -1.6239   -0.6216 C   0  0  0  0  0  0  0  0  0  0  0  0
   -0.6489   -0.2449   -0.6231 C   0  0  0  0  0  0  0  0  0  0  0  0
   -2.2513    0.9056   -0.6188 Se  0  0  0  0  0  2  0  0  0  0  0  0
   -3.2845   -0.7436   -0.6084 C   0  0  0  0  0  0  0  0  0  0  0  0
   -4.6887   -0.7839   -0.5925 C   0  0  0  0  0  0  0  0  0  0  0  0
   -5.4794    0.4353   -0.5830 C   0  0  0  0  0  0  0  0  0  0  0  0
   -4.8055    1.6210   -0.5996 N   0  0  0  0  0  0  0  0  0  0  0  0
   -5.4833    2.7855   -0.5907 C   0  0  0  0  0  0  0  0  0  0  0  0
   -6.8929    2.7926   -0.5636 C   0  0  0  0  0  0  0  0  0  0  0  0
   -7.5825    1.6353   -0.5461 N   0  0  0  0  0  0  0  0  0  0  0  0
   -6.9206    0.4425   -0.5551 C   0  0  0  0  0  0  0  0  0  0  0  0
   -7.7232   -0.7684   -0.5336 C   0  0  0  0  0  0  0  0  0  0  0  0
   -9.1273   -0.7143   -0.4973 C   0  0  0  0  0  0  0  0  0  0  0  0
  -10.0225   -1.8426   -0.4696 C   0  0  0  0  0  0  0  0  0  0  0  0
  -11.3772   -1.5703   -0.4286 C   0  0  0  0  0  0  0  0  0  0  0  0
  -11.7559   -0.1885   -0.4190 C   0  0  0  0  0  0  0  0  0  0  0  0
  -10.1440    0.9451   -0.4726 Se  0  0  0  0  0  2  0  0  0  0  0  0
   -6.9580   -2.0173   -0.5507 C   0  0  0  0  0  0  0  0  0  0  0  0
   -7.5165   -3.2358   -0.5415 N   0  0  0  0  0  0  0  0  0  0  0  0
   -6.2251   -4.4526   -0.5701 S   0  0  0  0  0  0  0  0  0  0  0  0
   -4.9212   -3.2490   -0.5938 N   0  0  0  0  0  0  0  0  0  0  0  0
   -5.4669   -2.0250   -0.5805 C   0  0  0  0  0  0  0  0  0  0  0  0
  -14.7836    1.9691   -0.3163 C   0  0  0  0  0  0  0  0  0  0  0  0
  -13.4283    1.6975   -0.3675 C   0  0  0  0  0  0  0  0  0  0  0  0
  -13.0493    0.3164   -0.3751 C   0  0  0  0  0  0  0  0  0  0  0  0
  -14.6608   -0.8169   -0.3076 Se  0  0  0  0  0  2  0  0  0  0  0  0
  -15.6767    0.8416   -0.2730 C   0  0  0  0  0  0  0  0  0  0  0  0
  -17.0821    0.8954   -0.2094 C   0  0  0  0  0  0  0  0  0  0  0  0
  -17.8846   -0.3117   -0.1615 C   0  0  0  0  0  0  0  0  0  0  0  0
  -17.2239   -1.5065   -0.1904 N   0  0  0  0  0  0  0  0  0  0  0  0
  -17.9118   -2.6616   -0.1460 C   0  0  0  0  0  0  0  0  0  0  0  0
  -19.3226   -2.6530   -0.0682 C   0  0  0  0  0  0  0  0  0  0  0  0
  -19.9990   -1.4916   -0.0384 N   0  0  0  0  0  0  0  0  0  0  0  0
  -19.3257   -0.3025   -0.0834 C   0  0  0  0  0  0  0  0  0  0  0  0
  -20.1129    0.9131   -0.0487 C   0  0  0  0  0  0  0  0  0  0  0  0
  -21.5230    0.8798    0.0324 C   0  0  0  0  0  0  0  0  0  0  0  0
  -22.3985    2.0127    0.0712 C   0  0  0  0  0  0  0  0  0  0  0  0
  -23.7617    1.7547    0.1557 C   0  0  0  0  0  0  0  0  0  0  0  0
  -24.1501    0.3854    0.1962 C   0  0  0  0  0  0  0  0  0  0  0  0
  -22.5616   -0.7649    0.1113 Se  0  0  0  0  0  2  0  0  0  0  0  0
  -19.3363    2.1505   -0.1030 C   0  0  0  0  0  0  0  0  0  0  0  0
  -19.8819    3.3770   -0.0864 N   0  0  0  0  0  0  0  0  0  0  0  0
  -18.5801    4.5770   -0.1690 S   0  0  0  0  0  0  0  0  0  0  0  0
  -17.2895    3.3623   -0.2252 N   0  0  0  0  0  0  0  0  0  0  0  0
  -17.8467    2.1433   -0.1824 C   0  0  0  0  0  0  0  0  0  0  0  0
  -27.2167   -1.7302    0.4208 C   0  0  0  0  0  0  0  0  0  0  0  0
  -25.8486   -1.4779    0.3288 C   0  0  0  0  0  0  0  0  0  0  0  0
  -25.4573   -0.1127    0.2854 C   0  0  0  0  0  0  0  0  0  0  0  0
  -27.0441    1.0396    0.3728 Se  0  0  0  0  0  2  0  0  0  0  0  0
  -28.0828   -0.5989    0.4632 C   0  0  0  0  0  0  0  0  0  0  0  0
  -29.5029   -0.6265    0.5600 C   0  0  0  0  0  0  0  0  0  0  0  0
  -30.2895    0.5747    0.6007 C   0  0  0  0  0  0  0  0  0  0  0  0
  -29.6142    1.7698    0.5377 N   0  0  0  0  0  0  0  0  0  0  0  0
  -30.2823    2.9245    0.5717 C   0  0  0  0  0  0  0  0  0  0  0  0
  -31.7054    2.9338    0.6741 C   0  0  0  0  0  0  0  0  0  0  0  0
  -32.3946    1.7962    0.7371 N   0  0  0  0  0  0  0  0  0  0  0  0
  -31.7377    0.5825    0.7044 C   0  0  0  0  0  0  0  0  0  0  0  0
  -32.5323   -0.6063    0.7754 C   0  0  0  0  0  0  0  0  0  0  0  0
  -33.9729   -0.5792    0.8773 C   0  0  0  0  0  0  0  0  0  0  0  0
  -34.8311   -1.6871    0.9495 C   0  0  0  0  0  0  0  0  0  0  0  0
  -36.2287   -1.4091    1.0437 C   0  0  0  0  0  0  0  0  0  0  0  0
  -36.5576   -0.0655    1.0521 C   0  0  0  0  0  0  0  0  0  0  0  0
  -35.0284    1.0654    0.9333 Se  0  0  0  0  0  2  0  0  0  0  0  0
  -31.7702   -1.8419    0.7354 C   0  0  0  0  0  0  0  0  0  0  0  0
  -32.3291   -3.0702    0.7896 N   0  0  0  0  0  0  0  0  0  0  0  0
  -31.0434   -4.2741    0.7098 S   0  0  0  0  0  0  0  0  0  0  0  0
  -29.7396   -3.0879    0.6025 N   0  0  0  0  0  0  0  0  0  0  0  0
  -30.2810   -1.8572    0.6284 C   0  0  0  0  0  0  0  0  0  0  0  0
   34.4329    2.6926    0.9328 H   0  0  0  0  0  0  0  0  0  0  0  0
   36.9703    2.1998    1.1039 H   0  0  0  0  0  0  0  0  0  0  0  0
   37.5555   -0.3525    1.1169 H   0  0  0  0  0  0  0  0  0  0  0  0
   32.2629   -3.8655    0.7031 H   0  0  0  0  0  0  0  0  0  0  0  0
   29.7096   -3.8452    0.5192 H   0  0  0  0  0  0  0  0  0  0  0  0
   27.6349    2.7272    0.4612 H   0  0  0  0  0  0  0  0  0  0  0  0
   25.1205    2.2840    0.2933 H   0  0  0  0  0  0  0  0  0  0  0  0
   21.9811   -3.0103    0.0349 H   0  0  0  0  0  0  0  0  0  0  0  0
   24.4938   -2.5574    0.1899 H   0  0  0  0  0  0  0  0  0  0  0  0
   19.8989    3.5718   -0.0303 H   0  0  0  0  0  0  0  0  0  0  0  0
   17.3450    3.5865   -0.1717 H   0  0  0  0  0  0  0  0  0  0  0  0
   15.1937   -2.9704   -0.3064 H   0  0  0  0  0  0  0  0  0  0  0  0
   12.6858   -2.4907   -0.4003 H   0  0  0  0  0  0  0  0  0  0  0  0
    9.6124    2.8441   -0.4807 H   0  0  0  0  0  0  0  0  0  0  0  0
   12.1205    2.3632   -0.4046 H   0  0  0  0  0  0  0  0  0  0  0  0
    7.4620   -3.7163   -0.5558 H   0  0  0  0  0  0  0  0  0  0  0  0
    4.9050   -3.7033   -0.6048 H   0  0  0  0  0  0  0  0  0  0  0  0
    2.8210    2.8788   -0.6121 H   0  0  0  0  0  0  0  0  0  0  0  0
    0.3072    2.4244   -0.6245 H   0  0  0  0  0  0  0  0  0  0  0  0
   -2.8210   -2.8787   -0.6121 H   0  0  0  0  0  0  0  0  0  0  0  0
   -0.3073   -2.4243   -0.6245 H   0  0  0  0  0  0  0  0  0  0  0  0
   -4.9050    3.7034   -0.6048 H   0  0  0  0  0  0  0  0  0  0  0  0
   -7.4620    3.7164   -0.5558 H   0  0  0  0  0  0  0  0  0  0  0  0
   -9.6124   -2.8440   -0.4808 H   0  0  0  0  0  0  0  0  0  0  0  0
  -12.1205   -2.3631   -0.4046 H   0  0  0  0  0  0  0  0  0  0  0  0
  -15.1937    2.9705   -0.3064 H   0  0  0  0  0  0  0  0  0  0  0  0
  -12.6858    2.4908   -0.4003 H   0  0  0  0  0  0  0  0  0  0  0  0
  -17.3450   -3.5864   -0.1717 H   0  0  0  0  0  0  0  0  0  0  0  0
  -19.8989   -3.5717   -0.0304 H   0  0  0  0  0  0  0  0  0  0  0  0
  -21.9811    3.0104    0.0349 H   0  0  0  0  0  0  0  0  0  0  0  0
  -24.4938    2.5574    0.1900 H   0  0  0  0  0  0  0  0  0  0  0  0
  -27.6348   -2.7273    0.4611 H   0  0  0  0  0  0  0  0  0  0  0  0
  -25.1204   -2.2840    0.2932 H   0  0  0  0  0  0  0  0  0  0  0  0
  -29.7096    3.8451    0.5193 H   0  0  0  0  0  0  0  0  0  0  0  0
  -32.2629    3.8654    0.7032 H   0  0  0  0  0  0  0  0  0  0  0  0
  -34.4329   -2.6928    0.9328 H   0  0  0  0  0  0  0  0  0  0  0  0
  -36.9702   -2.2001    1.1039 H   0  0  0  0  0  0  0  0  0  0  0  0
  -37.5554    0.3522    1.1169 H   0  0  0  0  0  0  0  0  0  0  0  0
  1  2  1  0
  2  3  2  0
  3  4  1  0
  4  5  1  0
  5  6  1  0
  6  7  2  0
  7  8  1  0
  8  9  2  0
  9 10  1  0
 10 11  2  0
 11 12  1  0
 12 13  2  0
 13 14  1  0
 14 15  2  0
 15 16  1  0
 16 17  2  0
 17 18  1  0
 13 19  1  0
 19 20  2  0
 20 21  1  0
 21 22  1  0
 22 23  2  0
 24 25  1  0
 25 26  2  0
 26 27  1  0
 27 28  1  0
 28 29  1  0
 29 30  2  0
 30 31  1  0
 31 32  2  0
 32 33  1  0
 33 34  2  0
 34 35  1  0
 35 36  2  0
 36 37  1  0
 37 38  2  0
 38 39  1  0
 39 40  2  0
 40 41  1  0
 36 42  1  0
 42 43  2  0
 43 44  1  0
 44 45  1  0
 45 46  2  0
 47 48  1  0
 48 49  2  0
 49 50  1  0
 50 51  1  0
 51 52  1  0
 52 53  2  0
 53 54  1  0
 54 55  2  0
 55 56  1  0
 56 57  2  0
 57 58  1  0
 58 59  2  0
 59 60  1  0
 60 61  2  0
 61 62  1  0
 62 63  2  0
 63 64  1  0
 59 65  1  0
 65 66  2  0
 66 67  1  0
 67 68  1  0
 68 69  2  0
 70 71  1  0
 71 72  2  0
 72 73  1  0
 73 74  1  0
 74 75  1  0
 75 76  2  0
 76 77  1  0
 77 78  2  0
 78 79  1  0
 79 80  2  0
 80 81  1  0
 81 82  2  0
 82 83  1  0
 83 84  2  0
 84 85  1  0
 85 86  2  0
 86 87  1  0
 82 88  1  0
 88 89  2  0
 89 90  1  0
 90 91  1  0
 91 92  2  0
 93 94  1  0
 94 95  2  0
 95 96  1  0
 96 97  1  0
 97 98  1  0
 98 99  2  0
 99100  1  0
100101  2  0
101102  1  0
102103  2  0
103104  1  0
104105  2  0
105106  1  0
106107  2  0
107108  1  0
108109  2  0
109110  1  0
105111  1  0
111112  2  0
112113  1  0
113114  1  0
114115  2  0
116117  1  0
117118  2  0
118119  1  0
119120  1  0
120121  1  0
121122  2  0
122123  1  0
123124  2  0
124125  1  0
125126  2  0
126127  1  0
127128  2  0
128129  1  0
129130  2  0
130131  1  0
131132  2  0
132133  1  0
128134  1  0
134135  2  0
135136  1  0
136137  1  0
137138  2  0
  5  1  2  0
 23  6  1  0
 28 24  2  0
 46 29  1  0
 51 47  2  0
 69 52  1  0
 74 70  2  0
 92 75  1  0
 97 93  2  0
115 98  1  0
120116  2  0
138121  1  0
 12  7  1  0
 18 14  1  0
 23 19  1  0
 35 30  1  0
 41 37  1  0
 46 42  1  0
 58 53  1  0
 64 60  1  0
 69 65  1  0
 81 76  1  0
 87 83  1  0
 92 88  1  0
104 99  1  0
110106  1  0
115111  1  0
127122  1  0
133129  1  0
138134  1  0
 17 26  1  0
 40 49  1  0
 63 72  1  0
 86 95  1  0
109118  1  0
  1139  1  0
  2140  1  0
  3141  1  0
  9142  1  0
 10143  1  0
 15144  1  0
 16145  1  0
 24146  1  0
 25147  1  0
 32148  1  0
 33149  1  0
 38150  1  0
 39151  1  0
 47152  1  0
 48153  1  0
 55154  1  0
 56155  1  0
 61156  1  0
 62157  1  0
 70158  1  0
 71159  1  0
 78160  1  0
 79161  1  0
 84162  1  0
 85163  1  0
 93164  1  0
 94165  1  0
101166  1  0
102167  1  0
107168  1  0
108169  1  0
116170  1  0
117171  1  0
124172  1  0
125173  1  0
130174  1  0
131175  1  0
132176  1  0
M  END
>  <_StereochemDone>  (28) 
1

>  <File>  (28) 
C-DAD_Hexamer/C-SeSSe6-UV.gjf

>  <System_Code>  (28) 
SeSSe

>  <Unit_Type>  (28) 
Hexamer

>  <Family>  (28) 
chalcogendiazoloquinoxaline

>  <InChIKey>  (28) 
CFTZRLVMROSDLQ-UHFFFAOYSA-N

$$$$
C-SeSeSe6-UV
     RDKit          3D

176205  0  0  0  0  0  0  0  0999 V2000
  -34.8734    1.5454    0.0002 C   0  0  0  0  0  0  0  0  0  0  0  0
  -36.2706    1.2495    0.0002 C   0  0  0  0  0  0  0  0  0  0  0  0
  -36.5824   -0.0980    0.0002 C   0  0  0  0  0  0  0  0  0  0  0  0
  -35.0337   -1.2092    0.0002 Se  0  0  0  0  0  2  0  0  0  0  0  0
  -33.9959    0.4502    0.0002 C   0  0  0  0  0  0  0  0  0  0  0  0
  -32.5510    0.4927    0.0002 C   0  0  0  0  0  0  0  0  0  0  0  0
  -31.7491   -0.6933    0.0001 C   0  0  0  0  0  0  0  0  0  0  0  0
  -32.4013   -1.9095    0.0002 N   0  0  0  0  0  0  0  0  0  0  0  0
  -31.7063   -3.0457    0.0001 C   0  0  0  0  0  0  0  0  0  0  0  0
  -30.2806   -3.0315    0.0001 C   0  0  0  0  0  0  0  0  0  0  0  0
  -29.6170   -1.8729    0.0001 N   0  0  0  0  0  0  0  0  0  0  0  0
  -30.2983   -0.6805    0.0001 C   0  0  0  0  0  0  0  0  0  0  0  0
  -29.5150    0.5239    0.0001 C   0  0  0  0  0  0  0  0  0  0  0  0
  -28.0918    0.4914    0.0001 C   0  0  0  0  0  0  0  0  0  0  0  0
  -27.2162    1.6176    0.0001 C   0  0  0  0  0  0  0  0  0  0  0  0
  -25.8471    1.3588    0.0001 C   0  0  0  0  0  0  0  0  0  0  0  0
  -25.4596   -0.0089    0.0001 C   0  0  0  0  0  0  0  0  0  0  0  0
  -27.0558   -1.1538    0.0001 Se  0  0  0  0  0  2  0  0  0  0  0  0
  -30.2957    1.7600    0.0001 C   0  0  0  0  0  0  0  0  0  0  0  0
  -29.7312    2.9787    0.0001 N   0  0  0  0  0  0  0  0  0  0  0  0
  -31.0775    4.2759    0.0001 Se  0  0  0  0  0  2  0  0  0  0  0  0
  -32.3913    2.9505    0.0002 N   0  0  0  0  0  0  0  0  0  0  0  0
  -31.7981    1.7387    0.0001 C   0  0  0  0  0  0  0  0  0  0  0  0
  -22.4034   -2.1467    0.0000 C   0  0  0  0  0  0  0  0  0  0  0  0
  -23.7675   -1.8831    0.0000 C   0  0  0  0  0  0  0  0  0  0  0  0
  -24.1524   -0.5115    0.0000 C   0  0  0  0  0  0  0  0  0  0  0  0
  -22.5553    0.6322    0.0000 Se  0  0  0  0  0  2  0  0  0  0  0  0
  -21.5194   -1.0186   -0.0000 C   0  0  0  0  0  0  0  0  0  0  0  0
  -20.1070   -1.0558   -0.0000 C   0  0  0  0  0  0  0  0  0  0  0  0
  -19.3242    0.1636   -0.0000 C   0  0  0  0  0  0  0  0  0  0  0  0
  -20.0032    1.3495   -0.0000 N   0  0  0  0  0  0  0  0  0  0  0  0
  -19.3325    2.5151   -0.0000 C   0  0  0  0  0  0  0  0  0  0  0  0
  -17.9206    2.5300   -0.0000 C   0  0  0  0  0  0  0  0  0  0  0  0
  -17.2272    1.3768   -0.0000 N   0  0  0  0  0  0  0  0  0  0  0  0
  -17.8820    0.1790   -0.0000 C   0  0  0  0  0  0  0  0  0  0  0  0
  -17.0726   -1.0246   -0.0000 C   0  0  0  0  0  0  0  0  0  0  0  0
  -15.6662   -0.9544   -0.0001 C   0  0  0  0  0  0  0  0  0  0  0  0
  -14.7545   -2.0687   -0.0001 C   0  0  0  0  0  0  0  0  0  0  0  0
  -13.4023   -1.7792   -0.0001 C   0  0  0  0  0  0  0  0  0  0  0  0
  -13.0410   -0.3931   -0.0001 C   0  0  0  0  0  0  0  0  0  0  0  0
  -14.6700    0.7189   -0.0001 Se  0  0  0  0  0  2  0  0  0  0  0  0
  -17.8268   -2.2839   -0.0000 C   0  0  0  0  0  0  0  0  0  0  0  0
  -17.2363   -3.4861   -0.0001 N   0  0  0  0  0  0  0  0  0  0  0  0
  -18.5531   -4.8234   -0.0000 Se  0  0  0  0  0  2  0  0  0  0  0  0
  -19.8950   -3.5129   -0.0000 N   0  0  0  0  0  0  0  0  0  0  0  0
  -19.3280   -2.2978   -0.0000 C   0  0  0  0  0  0  0  0  0  0  0  0
  -10.0426    1.8061   -0.0001 C   0  0  0  0  0  0  0  0  0  0  0  0
  -11.3938    1.5153   -0.0001 C   0  0  0  0  0  0  0  0  0  0  0  0
  -11.7541    0.1283   -0.0001 C   0  0  0  0  0  0  0  0  0  0  0  0
  -10.1247   -0.9831   -0.0001 Se  0  0  0  0  0  2  0  0  0  0  0  0
   -9.1289    0.6917   -0.0001 C   0  0  0  0  0  0  0  0  0  0  0  0
   -7.7246    0.7632   -0.0001 C   0  0  0  0  0  0  0  0  0  0  0  0
   -6.9149   -0.4432   -0.0001 C   0  0  0  0  0  0  0  0  0  0  0  0
   -7.5692   -1.6397   -0.0001 N   0  0  0  0  0  0  0  0  0  0  0  0
   -6.8742   -2.7942   -0.0001 C   0  0  0  0  0  0  0  0  0  0  0  0
   -5.4651   -2.7794   -0.0001 C   0  0  0  0  0  0  0  0  0  0  0  0
   -4.7947   -1.6103   -0.0001 N   0  0  0  0  0  0  0  0  0  0  0  0
   -5.4743   -0.4280   -0.0001 C   0  0  0  0  0  0  0  0  0  0  0  0
   -4.6903    0.7954   -0.0001 C   0  0  0  0  0  0  0  0  0  0  0  0
   -3.2853    0.7532   -0.0001 C   0  0  0  0  0  0  0  0  0  0  0  0
   -2.3952    1.8876   -0.0001 C   0  0  0  0  0  0  0  0  0  0  0  0
   -1.0389    1.6263   -0.0001 C   0  0  0  0  0  0  0  0  0  0  0  0
   -0.6482    0.2463   -0.0001 C   0  0  0  0  0  0  0  0  0  0  0  0
   -2.2547   -0.9000   -0.0001 Se  0  0  0  0  0  2  0  0  0  0  0  0
   -5.4704    2.0401   -0.0001 C   0  0  0  0  0  0  0  0  0  0  0  0
   -4.9047    3.2534   -0.0001 N   0  0  0  0  0  0  0  0  0  0  0  0
   -6.2478    4.5658   -0.0001 Se  0  0  0  0  0  2  0  0  0  0  0  0
   -7.5628    3.2253   -0.0001 N   0  0  0  0  0  0  0  0  0  0  0  0
   -6.9713    2.0241   -0.0001 C   0  0  0  0  0  0  0  0  0  0  0  0
    2.3952   -1.8876   -0.0001 C   0  0  0  0  0  0  0  0  0  0  0  0
    1.0389   -1.6262   -0.0001 C   0  0  0  0  0  0  0  0  0  0  0  0
    0.6482   -0.2463   -0.0001 C   0  0  0  0  0  0  0  0  0  0  0  0
    2.2547    0.9000   -0.0001 Se  0  0  0  0  0  2  0  0  0  0  0  0
    3.2853   -0.7532   -0.0001 C   0  0  0  0  0  0  0  0  0  0  0  0
    4.6903   -0.7953   -0.0001 C   0  0  0  0  0  0  0  0  0  0  0  0
    5.4743    0.4281   -0.0001 C   0  0  0  0  0  0  0  0  0  0  0  0
    4.7947    1.6103   -0.0001 N   0  0  0  0  0  0  0  0  0  0  0  0
    5.4651    2.7794   -0.0001 C   0  0  0  0  0  0  0  0  0  0  0  0
    6.8742    2.7942   -0.0001 C   0  0  0  0  0  0  0  0  0  0  0  0
    7.5692    1.6397   -0.0001 N   0  0  0  0  0  0  0  0  0  0  0  0
    6.9149    0.4432   -0.0001 C   0  0  0  0  0  0  0  0  0  0  0  0
    7.7246   -0.7632   -0.0001 C   0  0  0  0  0  0  0  0  0  0  0  0
    9.1289   -0.6916   -0.0001 C   0  0  0  0  0  0  0  0  0  0  0  0
   10.0426   -1.8060   -0.0001 C   0  0  0  0  0  0  0  0  0  0  0  0
   11.3938   -1.5153   -0.0001 C   0  0  0  0  0  0  0  0  0  0  0  0
   11.7541   -0.1282   -0.0001 C   0  0  0  0  0  0  0  0  0  0  0  0
   10.1247    0.9831   -0.0001 Se  0  0  0  0  0  2  0  0  0  0  0  0
    6.9713   -2.0241   -0.0001 C   0  0  0  0  0  0  0  0  0  0  0  0
    7.5628   -3.2252   -0.0001 N   0  0  0  0  0  0  0  0  0  0  0  0
    6.2478   -4.5658   -0.0001 Se  0  0  0  0  0  2  0  0  0  0  0  0
    4.9047   -3.2534   -0.0001 N   0  0  0  0  0  0  0  0  0  0  0  0
    5.4704   -2.0401   -0.0001 C   0  0  0  0  0  0  0  0  0  0  0  0
   14.7545    2.0687   -0.0001 C   0  0  0  0  0  0  0  0  0  0  0  0
   13.4023    1.7793   -0.0001 C   0  0  0  0  0  0  0  0  0  0  0  0
   13.0410    0.3931   -0.0001 C   0  0  0  0  0  0  0  0  0  0  0  0
   14.6700   -0.7188   -0.0001 Se  0  0  0  0  0  2  0  0  0  0  0  0
   15.6662    0.9544   -0.0001 C   0  0  0  0  0  0  0  0  0  0  0  0
   17.0726    1.0246   -0.0000 C   0  0  0  0  0  0  0  0  0  0  0  0
   17.8820   -0.1790   -0.0000 C   0  0  0  0  0  0  0  0  0  0  0  0
   17.2272   -1.3768   -0.0000 N   0  0  0  0  0  0  0  0  0  0  0  0
   17.9206   -2.5300   -0.0000 C   0  0  0  0  0  0  0  0  0  0  0  0
   19.3324   -2.5151   -0.0000 C   0  0  0  0  0  0  0  0  0  0  0  0
   20.0032   -1.3495   -0.0000 N   0  0  0  0  0  0  0  0  0  0  0  0
   19.3242   -0.1635   -0.0000 C   0  0  0  0  0  0  0  0  0  0  0  0
   20.1070    1.0558   -0.0000 C   0  0  0  0  0  0  0  0  0  0  0  0
   21.5194    1.0186   -0.0000 C   0  0  0  0  0  0  0  0  0  0  0  0
   22.4034    2.1467   -0.0000 C   0  0  0  0  0  0  0  0  0  0  0  0
   23.7675    1.8830    0.0000 C   0  0  0  0  0  0  0  0  0  0  0  0
   24.1524    0.5115    0.0000 C   0  0  0  0  0  0  0  0  0  0  0  0
   22.5553   -0.6322   -0.0000 Se  0  0  0  0  0  2  0  0  0  0  0  0
   19.3280    2.2978   -0.0000 C   0  0  0  0  0  0  0  0  0  0  0  0
   19.8950    3.5129   -0.0000 N   0  0  0  0  0  0  0  0  0  0  0  0
   18.5531    4.8234   -0.0000 Se  0  0  0  0  0  2  0  0  0  0  0  0
   17.2363    3.4861   -0.0001 N   0  0  0  0  0  0  0  0  0  0  0  0
   17.8268    2.2839   -0.0000 C   0  0  0  0  0  0  0  0  0  0  0  0
   27.2162   -1.6177    0.0001 C   0  0  0  0  0  0  0  0  0  0  0  0
   25.8471   -1.3589    0.0000 C   0  0  0  0  0  0  0  0  0  0  0  0
   25.4596    0.0089    0.0000 C   0  0  0  0  0  0  0  0  0  0  0  0
   27.0559    1.1538    0.0000 Se  0  0  0  0  0  2  0  0  0  0  0  0
   28.0918   -0.4914    0.0001 C   0  0  0  0  0  0  0  0  0  0  0  0
   29.5150   -0.5239    0.0001 C   0  0  0  0  0  0  0  0  0  0  0  0
   30.2983    0.6805    0.0001 C   0  0  0  0  0  0  0  0  0  0  0  0
   29.6170    1.8729    0.0001 N   0  0  0  0  0  0  0  0  0  0  0  0
   30.2806    3.0314    0.0001 C   0  0  0  0  0  0  0  0  0  0  0  0
   31.7063    3.0457    0.0001 C   0  0  0  0  0  0  0  0  0  0  0  0
   32.4013    1.9094    0.0001 N   0  0  0  0  0  0  0  0  0  0  0  0
   31.7491    0.6932    0.0001 C   0  0  0  0  0  0  0  0  0  0  0  0
   32.5510   -0.4927    0.0001 C   0  0  0  0  0  0  0  0  0  0  0  0
   33.9959   -0.4503    0.0002 C   0  0  0  0  0  0  0  0  0  0  0  0
   34.8734   -1.5455    0.0002 C   0  0  0  0  0  0  0  0  0  0  0  0
   36.2706   -1.2496    0.0002 C   0  0  0  0  0  0  0  0  0  0  0  0
   36.5824    0.0980    0.0002 C   0  0  0  0  0  0  0  0  0  0  0  0
   35.0337    1.2091    0.0002 Se  0  0  0  0  0  2  0  0  0  0  0  0
   31.7981   -1.7388    0.0001 C   0  0  0  0  0  0  0  0  0  0  0  0
   32.3913   -2.9505    0.0001 N   0  0  0  0  0  0  0  0  0  0  0  0
   31.0775   -4.2760    0.0001 Se  0  0  0  0  0  2  0  0  0  0  0  0
   29.7312   -2.9787    0.0001 N   0  0  0  0  0  0  0  0  0  0  0  0
   30.2957   -1.7600    0.0001 C   0  0  0  0  0  0  0  0  0  0  0  0
  -34.4864    2.5553    0.0002 H   0  0  0  0  0  0  0  0  0  0  0  0
  -37.0242    2.0314    0.0002 H   0  0  0  0  0  0  0  0  0  0  0  0
  -37.5771   -0.5282    0.0002 H   0  0  0  0  0  0  0  0  0  0  0  0
  -32.2622   -3.9787    0.0001 H   0  0  0  0  0  0  0  0  0  0  0  0
  -29.7011   -3.9493    0.0001 H   0  0  0  0  0  0  0  0  0  0  0  0
  -27.6332    2.6157    0.0001 H   0  0  0  0  0  0  0  0  0  0  0  0
  -25.1142    2.1615    0.0000 H   0  0  0  0  0  0  0  0  0  0  0  0
  -21.9870   -3.1451    0.0000 H   0  0  0  0  0  0  0  0  0  0  0  0
  -24.5038   -2.6826    0.0000 H   0  0  0  0  0  0  0  0  0  0  0  0
  -19.9151    3.4306    0.0000 H   0  0  0  0  0  0  0  0  0  0  0  0
  -17.3561    3.4566   -0.0000 H   0  0  0  0  0  0  0  0  0  0  0  0
  -15.1532   -3.0744   -0.0001 H   0  0  0  0  0  0  0  0  0  0  0  0
  -12.6487   -2.5627   -0.0001 H   0  0  0  0  0  0  0  0  0  0  0  0
   -9.6443    2.8120   -0.0001 H   0  0  0  0  0  0  0  0  0  0  0  0
  -12.1482    2.2980   -0.0001 H   0  0  0  0  0  0  0  0  0  0  0  0
   -7.4393   -3.7205   -0.0001 H   0  0  0  0  0  0  0  0  0  0  0  0
   -4.8806   -3.6935   -0.0001 H   0  0  0  0  0  0  0  0  0  0  0  0
   -2.8154    2.8846   -0.0001 H   0  0  0  0  0  0  0  0  0  0  0  0
   -0.3014    2.4249   -0.0001 H   0  0  0  0  0  0  0  0  0  0  0  0
    2.8154   -2.8846   -0.0001 H   0  0  0  0  0  0  0  0  0  0  0  0
    0.3014   -2.4248   -0.0001 H   0  0  0  0  0  0  0  0  0  0  0  0
    4.8807    3.6935   -0.0001 H   0  0  0  0  0  0  0  0  0  0  0  0
    7.4393    3.7205   -0.0001 H   0  0  0  0  0  0  0  0  0  0  0  0
    9.6443   -2.8120   -0.0001 H   0  0  0  0  0  0  0  0  0  0  0  0
   12.1482   -2.2979   -0.0001 H   0  0  0  0  0  0  0  0  0  0  0  0
   15.1532    3.0744   -0.0001 H   0  0  0  0  0  0  0  0  0  0  0  0
   12.6487    2.5627   -0.0001 H   0  0  0  0  0  0  0  0  0  0  0  0
   17.3561   -3.4566   -0.0000 H   0  0  0  0  0  0  0  0  0  0  0  0
   19.9151   -3.4306    0.0000 H   0  0  0  0  0  0  0  0  0  0  0  0
   21.9870    3.1451   -0.0000 H   0  0  0  0  0  0  0  0  0  0  0  0
   24.5038    2.6826    0.0000 H   0  0  0  0  0  0  0  0  0  0  0  0
   27.6332   -2.6158    0.0001 H   0  0  0  0  0  0  0  0  0  0  0  0
   25.1142   -2.1615    0.0000 H   0  0  0  0  0  0  0  0  0  0  0  0
   29.7011    3.9493    0.0001 H   0  0  0  0  0  0  0  0  0  0  0  0
   32.2622    3.9786    0.0001 H   0  0  0  0  0  0  0  0  0  0  0  0
   34.4864   -2.5553    0.0002 H   0  0  0  0  0  0  0  0  0  0  0  0
   37.0242   -2.0315    0.0002 H   0  0  0  0  0  0  0  0  0  0  0  0
   37.5771    0.5281    0.0002 H   0  0  0  0  0  0  0  0  0  0  0  0
  1  2  1  0
  2  3  2  0
  3  4  1  0
  4  5  1  0
  5  6  1  0
  6  7  2  0
  7  8  1  0
  8  9  2  0
  9 10  1  0
 10 11  2  0
 11 12  1  0
 12 13  2  0
 13 14  1  0
 14 15  2  0
 15 16  1  0
 16 17  2  0
 17 18  1  0
 13 19  1  0
 19 20  2  0
 20 21  1  0
 21 22  1  0
 22 23  2  0
 24 25  1  0
 25 26  2  0
 26 27  1  0
 27 28  1  0
 28 29  1  0
 29 30  2  0
 30 31  1  0
 31 32  2  0
 32 33  1  0
 33 34  2  0
 34 35  1  0
 35 36  2  0
 36 37  1  0
 37 38  2  0
 38 39  1  0
 39 40  2  0
 40 41  1  0
 36 42  1  0
 42 43  2  0
 43 44  1  0
 44 45  1  0
 45 46  2  0
 47 48  1  0
 48 49  2  0
 49 50  1  0
 50 51  1  0
 51 52  1  0
 52 53  2  0
 53 54  1  0
 54 55  2  0
 55 56  1  0
 56 57  2  0
 57 58  1  0
 58 59  2  0
 59 60  1  0
 60 61  2  0
 61 62  1  0
 62 63  2  0
 63 64  1  0
 59 65  1  0
 65 66  2  0
 66 67  1  0
 67 68  1  0
 68 69  2  0
 70 71  1  0
 71 72  2  0
 72 73  1  0
 73 74  1  0
 74 75  1  0
 75 76  2  0
 76 77  1  0
 77 78  2  0
 78 79  1  0
 79 80  2  0
 80 81  1  0
 81 82  2  0
 82 83  1  0
 83 84  2  0
 84 85  1  0
 85 86  2  0
 86 87  1  0
 82 88  1  0
 88 89  2  0
 89 90  1  0
 90 91  1  0
 91 92  2  0
 93 94  1  0
 94 95  2  0
 95 96  1  0
 96 97  1  0
 97 98  1  0
 98 99  2  0
 99100  1  0
100101  2  0
101102  1  0
102103  2  0
103104  1  0
104105  2  0
105106  1  0
106107  2  0
107108  1  0
108109  2  0
109110  1  0
105111  1  0
111112  2  0
112113  1  0
113114  1  0
114115  2  0
116117  1  0
117118  2  0
118119  1  0
119120  1  0
120121  1  0
121122  2  0
122123  1  0
123124  2  0
124125  1  0
125126  2  0
126127  1  0
127128  2  0
128129  1  0
129130  2  0
130131  1  0
131132  2  0
132133  1  0
128134  1  0
134135  2  0
135136  1  0
136137  1  0
137138  2  0
  5  1  2  0
 23  6  1  0
 28 24  2  0
 46 29  1  0
 51 47  2  0
 69 52  1  0
 74 70  2  0
 92 75  1  0
 97 93  2  0
115 98  1  0
120116  2  0
138121  1  0
 12  7  1  0
 18 14  1  0
 23 19  1  0
 35 30  1  0
 41 37  1  0
 46 42  1  0
 58 53  1  0
 64 60  1  0
 69 65  1  0
 81 76  1  0
 87 83  1  0
 92 88  1  0
104 99  1  0
110106  1  0
115111  1  0
127122  1  0
133129  1  0
138134  1  0
 17 26  1  0
 40 49  1  0
 63 72  1  0
 86 95  1  0
109118  1  0
  1139  1  0
  2140  1  0
  3141  1  0
  9142  1  0
 10143  1  0
 15144  1  0
 16145  1  0
 24146  1  0
 25147  1  0
 32148  1  0
 33149  1  0
 38150  1  0
 39151  1  0
 47152  1  0
 48153  1  0
 55154  1  0
 56155  1  0
 61156  1  0
 62157  1  0
 70158  1  0
 71159  1  0
 78160  1  0
 79161  1  0
 84162  1  0
 85163  1  0
 93164  1  0
 94165  1  0
101166  1  0
102167  1  0
107168  1  0
108169  1  0
116170  1  0
117171  1  0
124172  1  0
125173  1  0
130174  1  0
131175  1  0
132176  1  0
M  END
>  <_StereochemDone>  (29) 
1

>  <File>  (29) 
C-DAD_Hexamer/C-SeSeSe6-UV.gjf

>  <System_Code>  (29) 
SeSeSe

>  <Unit_Type>  (29) 
Hexamer

>  <Family>  (29) 
chalcogendiazoloquinoxaline

>  <InChIKey>  (29) 
SGKTVNBCANOSMH-UHFFFAOYSA-N

$$$$
C-SeTeSe6-UV
     RDKit          3D

176205  0  0  0  0  0  0  0  0999 V2000
  -34.8677   -1.4072    0.0003 C   0  0  0  0  0  0  0  0  0  0  0  0
  -36.2608   -1.0926    0.0004 C   0  0  0  0  0  0  0  0  0  0  0  0
  -36.5549    0.2589    0.0004 C   0  0  0  0  0  0  0  0  0  0  0  0
  -34.9906    1.3493    0.0003 Se  0  0  0  0  0  2  0  0  0  0  0  0
  -33.9731   -0.3256    0.0003 C   0  0  0  0  0  0  0  0  0  0  0  0
  -32.5279   -0.3859    0.0003 C   0  0  0  0  0  0  0  0  0  0  0  0
  -31.7215    0.7974    0.0003 C   0  0  0  0  0  0  0  0  0  0  0  0
  -32.3678    2.0159    0.0003 N   0  0  0  0  0  0  0  0  0  0  0  0
  -31.6693    3.1510    0.0003 C   0  0  0  0  0  0  0  0  0  0  0  0
  -30.2453    3.1316    0.0002 C   0  0  0  0  0  0  0  0  0  0  0  0
  -29.5874    1.9686    0.0002 N   0  0  0  0  0  0  0  0  0  0  0  0
  -30.2721    0.7794    0.0002 C   0  0  0  0  0  0  0  0  0  0  0  0
  -29.4930   -0.4285    0.0002 C   0  0  0  0  0  0  0  0  0  0  0  0
  -28.0708   -0.3894    0.0002 C   0  0  0  0  0  0  0  0  0  0  0  0
  -27.1859   -1.5109    0.0002 C   0  0  0  0  0  0  0  0  0  0  0  0
  -25.8198   -1.2457    0.0001 C   0  0  0  0  0  0  0  0  0  0  0  0
  -25.4376    0.1253    0.0001 C   0  0  0  0  0  0  0  0  0  0  0  0
  -27.0419    1.2629    0.0002 Se  0  0  0  0  0  2  0  0  0  0  0  0
  -30.2714   -1.6735    0.0002 C   0  0  0  0  0  0  0  0  0  0  0  0
  -29.6805   -2.8763    0.0002 N   0  0  0  0  0  0  0  0  0  0  0  0
  -31.0737   -4.3385    0.0002 Te  0  0  0  0  0  2  0  0  0  0  0  0
  -32.4175   -2.8362    0.0003 N   0  0  0  0  0  0  0  0  0  0  0  0
  -31.7883   -1.6456    0.0003 C   0  0  0  0  0  0  0  0  0  0  0  0
  -22.3925    2.2751    0.0001 C   0  0  0  0  0  0  0  0  0  0  0  0
  -23.7539    2.0060    0.0001 C   0  0  0  0  0  0  0  0  0  0  0  0
  -24.1342    0.6315    0.0001 C   0  0  0  0  0  0  0  0  0  0  0  0
  -22.5297   -0.5057    0.0000 Se  0  0  0  0  0  2  0  0  0  0  0  0
  -21.4998    1.1515    0.0000 C   0  0  0  0  0  0  0  0  0  0  0  0
  -20.0882    1.1947    0.0000 C   0  0  0  0  0  0  0  0  0  0  0  0
  -19.3103   -0.0287   -0.0000 C   0  0  0  0  0  0  0  0  0  0  0  0
  -19.9933   -1.2112    0.0000 N   0  0  0  0  0  0  0  0  0  0  0  0
  -19.3290   -2.3815   -0.0000 C   0  0  0  0  0  0  0  0  0  0  0  0
  -17.9187   -2.4025   -0.0000 C   0  0  0  0  0  0  0  0  0  0  0  0
  -17.2212   -1.2509   -0.0001 N   0  0  0  0  0  0  0  0  0  0  0  0
  -17.8695   -0.0504   -0.0000 C   0  0  0  0  0  0  0  0  0  0  0  0
  -17.0544    1.1500   -0.0001 C   0  0  0  0  0  0  0  0  0  0  0  0
  -15.6490    1.0617   -0.0001 C   0  0  0  0  0  0  0  0  0  0  0  0
  -14.7194    2.1627   -0.0001 C   0  0  0  0  0  0  0  0  0  0  0  0
  -13.3719    1.8556   -0.0001 C   0  0  0  0  0  0  0  0  0  0  0  0
  -13.0282    0.4642   -0.0002 C   0  0  0  0  0  0  0  0  0  0  0  0
  -14.6734   -0.6263   -0.0001 Se  0  0  0  0  0  2  0  0  0  0  0  0
  -17.7952    2.4239   -0.0000 C   0  0  0  0  0  0  0  0  0  0  0  0
  -17.1695    3.6051   -0.0001 N   0  0  0  0  0  0  0  0  0  0  0  0
  -18.5156    5.1195   -0.0000 Te  0  0  0  0  0  2  0  0  0  0  0  0
  -19.9029    3.6446    0.0000 N   0  0  0  0  0  0  0  0  0  0  0  0
  -19.3110    2.4448   -0.0000 C   0  0  0  0  0  0  0  0  0  0  0  0
  -10.0602   -1.7741   -0.0002 C   0  0  0  0  0  0  0  0  0  0  0  0
  -11.4066   -1.4654   -0.0002 C   0  0  0  0  0  0  0  0  0  0  0  0
  -11.7490   -0.0730   -0.0002 C   0  0  0  0  0  0  0  0  0  0  0  0
  -10.1029    1.0162   -0.0002 Se  0  0  0  0  0  2  0  0  0  0  0  0
   -9.1284   -0.6736   -0.0002 C   0  0  0  0  0  0  0  0  0  0  0  0
   -7.7248   -0.7638   -0.0002 C   0  0  0  0  0  0  0  0  0  0  0  0
   -6.9087    0.4384   -0.0002 C   0  0  0  0  0  0  0  0  0  0  0  0
   -7.5557    1.6383   -0.0002 N   0  0  0  0  0  0  0  0  0  0  0  0
   -6.8560    2.7905   -0.0002 C   0  0  0  0  0  0  0  0  0  0  0  0
   -5.4481    2.7686   -0.0002 C   0  0  0  0  0  0  0  0  0  0  0  0
   -4.7848    1.5949   -0.0002 N   0  0  0  0  0  0  0  0  0  0  0  0
   -5.4692    0.4159   -0.0002 C   0  0  0  0  0  0  0  0  0  0  0  0
   -4.6911   -0.8114   -0.0003 C   0  0  0  0  0  0  0  0  0  0  0  0
   -3.2858   -0.7651   -0.0003 C   0  0  0  0  0  0  0  0  0  0  0  0
   -2.3890   -1.8951   -0.0003 C   0  0  0  0  0  0  0  0  0  0  0  0
   -1.0341   -1.6294   -0.0003 C   0  0  0  0  0  0  0  0  0  0  0  0
   -0.6472   -0.2479   -0.0003 C   0  0  0  0  0  0  0  0  0  0  0  0
   -2.2590    0.8932   -0.0003 Se  0  0  0  0  0  2  0  0  0  0  0  0
   -5.4701   -2.0634   -0.0003 C   0  0  0  0  0  0  0  0  0  0  0  0
   -4.8805   -3.2621   -0.0003 N   0  0  0  0  0  0  0  0  0  0  0  0
   -6.2699   -4.7377   -0.0003 Te  0  0  0  0  0  2  0  0  0  0  0  0
   -7.6128   -3.2194   -0.0002 N   0  0  0  0  0  0  0  0  0  0  0  0
   -6.9857   -2.0396   -0.0002 C   0  0  0  0  0  0  0  0  0  0  0  0
    2.3890    1.8951   -0.0003 C   0  0  0  0  0  0  0  0  0  0  0  0
    1.0341    1.6295   -0.0003 C   0  0  0  0  0  0  0  0  0  0  0  0
    0.6472    0.2480   -0.0003 C   0  0  0  0  0  0  0  0  0  0  0  0
    2.2590   -0.8932   -0.0003 Se  0  0  0  0  0  2  0  0  0  0  0  0
    3.2858    0.7651   -0.0003 C   0  0  0  0  0  0  0  0  0  0  0  0
    4.6911    0.8114   -0.0002 C   0  0  0  0  0  0  0  0  0  0  0  0
    5.4692   -0.4159   -0.0002 C   0  0  0  0  0  0  0  0  0  0  0  0
    4.7848   -1.5948   -0.0002 N   0  0  0  0  0  0  0  0  0  0  0  0
    5.4481   -2.7685   -0.0002 C   0  0  0  0  0  0  0  0  0  0  0  0
    6.8560   -2.7905   -0.0002 C   0  0  0  0  0  0  0  0  0  0  0  0
    7.5557   -1.6382   -0.0002 N   0  0  0  0  0  0  0  0  0  0  0  0
    6.9087   -0.4383   -0.0002 C   0  0  0  0  0  0  0  0  0  0  0  0
    7.7249    0.7639   -0.0002 C   0  0  0  0  0  0  0  0  0  0  0  0
    9.1284    0.6737   -0.0002 C   0  0  0  0  0  0  0  0  0  0  0  0
   10.0602    1.7742   -0.0002 C   0  0  0  0  0  0  0  0  0  0  0  0
   11.4066    1.4654   -0.0002 C   0  0  0  0  0  0  0  0  0  0  0  0
   11.7490    0.0731   -0.0002 C   0  0  0  0  0  0  0  0  0  0  0  0
   10.1029   -1.0162   -0.0002 Se  0  0  0  0  0  2  0  0  0  0  0  0
    6.9857    2.0397   -0.0002 C   0  0  0  0  0  0  0  0  0  0  0  0
    7.6129    3.2194   -0.0002 N   0  0  0  0  0  0  0  0  0  0  0  0
    6.2700    4.7378   -0.0002 Te  0  0  0  0  0  2  0  0  0  0  0  0
    4.8805    3.2622   -0.0002 N   0  0  0  0  0  0  0  0  0  0  0  0
    5.4701    2.0634   -0.0002 C   0  0  0  0  0  0  0  0  0  0  0  0
   14.7194   -2.1627   -0.0001 C   0  0  0  0  0  0  0  0  0  0  0  0
   13.3719   -1.8556   -0.0001 C   0  0  0  0  0  0  0  0  0  0  0  0
   13.0282   -0.4642   -0.0001 C   0  0  0  0  0  0  0  0  0  0  0  0
   14.6734    0.6264   -0.0001 Se  0  0  0  0  0  2  0  0  0  0  0  0
   15.6490   -1.0617   -0.0001 C   0  0  0  0  0  0  0  0  0  0  0  0
   17.0544   -1.1500   -0.0000 C   0  0  0  0  0  0  0  0  0  0  0  0
   17.8695    0.0504   -0.0000 C   0  0  0  0  0  0  0  0  0  0  0  0
   17.2212    1.2509   -0.0000 N   0  0  0  0  0  0  0  0  0  0  0  0
   17.9188    2.4025   -0.0000 C   0  0  0  0  0  0  0  0  0  0  0  0
   19.3290    2.3815    0.0000 C   0  0  0  0  0  0  0  0  0  0  0  0
   19.9933    1.2112    0.0000 N   0  0  0  0  0  0  0  0  0  0  0  0
   19.3103    0.0287    0.0000 C   0  0  0  0  0  0  0  0  0  0  0  0
   20.0881   -1.1947    0.0000 C   0  0  0  0  0  0  0  0  0  0  0  0
   21.4998   -1.1515    0.0001 C   0  0  0  0  0  0  0  0  0  0  0  0
   22.3925   -2.2751    0.0001 C   0  0  0  0  0  0  0  0  0  0  0  0
   23.7539   -2.0060    0.0001 C   0  0  0  0  0  0  0  0  0  0  0  0
   24.1342   -0.6315    0.0001 C   0  0  0  0  0  0  0  0  0  0  0  0
   22.5297    0.5057    0.0001 Se  0  0  0  0  0  2  0  0  0  0  0  0
   19.3110   -2.4448    0.0000 C   0  0  0  0  0  0  0  0  0  0  0  0
   19.9028   -3.6446    0.0000 N   0  0  0  0  0  0  0  0  0  0  0  0
   18.5156   -5.1195   -0.0000 Te  0  0  0  0  0  2  0  0  0  0  0  0
   17.1695   -3.6051   -0.0000 N   0  0  0  0  0  0  0  0  0  0  0  0
   17.7952   -2.4239   -0.0000 C   0  0  0  0  0  0  0  0  0  0  0  0
   27.1859    1.5108    0.0002 C   0  0  0  0  0  0  0  0  0  0  0  0
   25.8198    1.2457    0.0002 C   0  0  0  0  0  0  0  0  0  0  0  0
   25.4376   -0.1253    0.0001 C   0  0  0  0  0  0  0  0  0  0  0  0
   27.0419   -1.2630    0.0002 Se  0  0  0  0  0  2  0  0  0  0  0  0
   28.0708    0.3893    0.0002 C   0  0  0  0  0  0  0  0  0  0  0  0
   29.4930    0.4285    0.0002 C   0  0  0  0  0  0  0  0  0  0  0  0
   30.2721   -0.7795    0.0002 C   0  0  0  0  0  0  0  0  0  0  0  0
   29.5874   -1.9686    0.0002 N   0  0  0  0  0  0  0  0  0  0  0  0
   30.2453   -3.1316    0.0002 C   0  0  0  0  0  0  0  0  0  0  0  0
   31.6693   -3.1511    0.0003 C   0  0  0  0  0  0  0  0  0  0  0  0
   32.3678   -2.0160    0.0003 N   0  0  0  0  0  0  0  0  0  0  0  0
   31.7215   -0.7974    0.0003 C   0  0  0  0  0  0  0  0  0  0  0  0
   32.5279    0.3858    0.0003 C   0  0  0  0  0  0  0  0  0  0  0  0
   33.9731    0.3256    0.0003 C   0  0  0  0  0  0  0  0  0  0  0  0
   34.8677    1.4072    0.0003 C   0  0  0  0  0  0  0  0  0  0  0  0
   36.2608    1.0925    0.0004 C   0  0  0  0  0  0  0  0  0  0  0  0
   36.5549   -0.2590    0.0004 C   0  0  0  0  0  0  0  0  0  0  0  0
   34.9906   -1.3493    0.0003 Se  0  0  0  0  0  2  0  0  0  0  0  0
   31.7883    1.6455    0.0003 C   0  0  0  0  0  0  0  0  0  0  0  0
   32.4175    2.8361    0.0003 N   0  0  0  0  0  0  0  0  0  0  0  0
   31.0737    4.3384    0.0003 Te  0  0  0  0  0  2  0  0  0  0  0  0
   29.6806    2.8762    0.0002 N   0  0  0  0  0  0  0  0  0  0  0  0
   30.2714    1.6735    0.0002 C   0  0  0  0  0  0  0  0  0  0  0  0
  -34.4889   -2.4199    0.0003 H   0  0  0  0  0  0  0  0  0  0  0  0
  -37.0246   -1.8648    0.0004 H   0  0  0  0  0  0  0  0  0  0  0  0
  -37.5441    0.7020    0.0004 H   0  0  0  0  0  0  0  0  0  0  0  0
  -32.2232    4.0853    0.0003 H   0  0  0  0  0  0  0  0  0  0  0  0
  -29.6609    4.0463    0.0002 H   0  0  0  0  0  0  0  0  0  0  0  0
  -27.6042   -2.5083    0.0002 H   0  0  0  0  0  0  0  0  0  0  0  0
  -25.0825   -2.0446    0.0001 H   0  0  0  0  0  0  0  0  0  0  0  0
  -21.9742    3.2727    0.0001 H   0  0  0  0  0  0  0  0  0  0  0  0
  -24.4941    2.8022    0.0001 H   0  0  0  0  0  0  0  0  0  0  0  0
  -19.9172   -3.2935    0.0000 H   0  0  0  0  0  0  0  0  0  0  0  0
  -17.3569   -3.3308   -0.0000 H   0  0  0  0  0  0  0  0  0  0  0  0
  -15.1107    3.1713   -0.0001 H   0  0  0  0  0  0  0  0  0  0  0  0
  -12.6078    2.6289   -0.0002 H   0  0  0  0  0  0  0  0  0  0  0  0
   -9.6697   -2.7830   -0.0002 H   0  0  0  0  0  0  0  0  0  0  0  0
  -12.1717   -2.2377   -0.0002 H   0  0  0  0  0  0  0  0  0  0  0  0
   -7.4177    3.7189   -0.0002 H   0  0  0  0  0  0  0  0  0  0  0  0
   -4.8578    3.6790   -0.0002 H   0  0  0  0  0  0  0  0  0  0  0  0
   -2.8116   -2.8909   -0.0003 H   0  0  0  0  0  0  0  0  0  0  0  0
   -0.2937   -2.4255   -0.0003 H   0  0  0  0  0  0  0  0  0  0  0  0
    2.8116    2.8910   -0.0003 H   0  0  0  0  0  0  0  0  0  0  0  0
    0.2937    2.4256   -0.0003 H   0  0  0  0  0  0  0  0  0  0  0  0
    4.8578   -3.6789   -0.0002 H   0  0  0  0  0  0  0  0  0  0  0  0
    7.4176   -3.7188   -0.0002 H   0  0  0  0  0  0  0  0  0  0  0  0
    9.6697    2.7831   -0.0002 H   0  0  0  0  0  0  0  0  0  0  0  0
   12.1717    2.2377   -0.0002 H   0  0  0  0  0  0  0  0  0  0  0  0
   15.1107   -3.1712   -0.0001 H   0  0  0  0  0  0  0  0  0  0  0  0
   12.6078   -2.6289   -0.0001 H   0  0  0  0  0  0  0  0  0  0  0  0
   17.3570    3.3308   -0.0000 H   0  0  0  0  0  0  0  0  0  0  0  0
   19.9172    3.2934    0.0000 H   0  0  0  0  0  0  0  0  0  0  0  0
   21.9742   -3.2727    0.0001 H   0  0  0  0  0  0  0  0  0  0  0  0
   24.4941   -2.8022    0.0001 H   0  0  0  0  0  0  0  0  0  0  0  0
   27.6042    2.5083    0.0002 H   0  0  0  0  0  0  0  0  0  0  0  0
   25.0826    2.0446    0.0001 H   0  0  0  0  0  0  0  0  0  0  0  0
   29.6609   -4.0463    0.0002 H   0  0  0  0  0  0  0  0  0  0  0  0
   32.2232   -4.0853    0.0003 H   0  0  0  0  0  0  0  0  0  0  0  0
   34.4889    2.4199    0.0003 H   0  0  0  0  0  0  0  0  0  0  0  0
   37.0246    1.8647    0.0004 H   0  0  0  0  0  0  0  0  0  0  0  0
   37.5441   -0.7020    0.0004 H   0  0  0  0  0  0  0  0  0  0  0  0
  1  2  1  0
  2  3  2  0
  3  4  1  0
  4  5  1  0
  5  6  1  0
  6  7  2  0
  7  8  1  0
  8  9  2  0
  9 10  1  0
 10 11  2  0
 11 12  1  0
 12 13  2  0
 13 14  1  0
 14 15  2  0
 15 16  1  0
 16 17  2  0
 17 18  1  0
 13 19  1  0
 19 20  2  0
 20 21  1  0
 21 22  1  0
 22 23  2  0
 24 25  1  0
 25 26  2  0
 26 27  1  0
 27 28  1  0
 28 29  1  0
 29 30  2  0
 30 31  1  0
 31 32  2  0
 32 33  1  0
 33 34  2  0
 34 35  1  0
 35 36  2  0
 36 37  1  0
 37 38  2  0
 38 39  1  0
 39 40  2  0
 40 41  1  0
 36 42  1  0
 42 43  2  0
 43 44  1  0
 44 45  1  0
 45 46  2  0
 47 48  1  0
 48 49  2  0
 49 50  1  0
 50 51  1  0
 51 52  1  0
 52 53  2  0
 53 54  1  0
 54 55  2  0
 55 56  1  0
 56 57  2  0
 57 58  1  0
 58 59  2  0
 59 60  1  0
 60 61  2  0
 61 62  1  0
 62 63  2  0
 63 64  1  0
 59 65  1  0
 65 66  2  0
 66 67  1  0
 67 68  1  0
 68 69  2  0
 70 71  1  0
 71 72  2  0
 72 73  1  0
 73 74  1  0
 74 75  1  0
 75 76  2  0
 76 77  1  0
 77 78  2  0
 78 79  1  0
 79 80  2  0
 80 81  1  0
 81 82  2  0
 82 83  1  0
 83 84  2  0
 84 85  1  0
 85 86  2  0
 86 87  1  0
 82 88  1  0
 88 89  2  0
 89 90  1  0
 90 91  1  0
 91 92  2  0
 93 94  1  0
 94 95  2  0
 95 96  1  0
 96 97  1  0
 97 98  1  0
 98 99  2  0
 99100  1  0
100101  2  0
101102  1  0
102103  2  0
103104  1  0
104105  2  0
105106  1  0
106107  2  0
107108  1  0
108109  2  0
109110  1  0
105111  1  0
111112  2  0
112113  1  0
113114  1  0
114115  2  0
116117  1  0
117118  2  0
118119  1  0
119120  1  0
120121  1  0
121122  2  0
122123  1  0
123124  2  0
124125  1  0
125126  2  0
126127  1  0
127128  2  0
128129  1  0
129130  2  0
130131  1  0
131132  2  0
132133  1  0
128134  1  0
134135  2  0
135136  1  0
136137  1  0
137138  2  0
  5  1  2  0
 23  6  1  0
 28 24  2  0
 46 29  1  0
 51 47  2  0
 69 52  1  0
 74 70  2  0
 92 75  1  0
 97 93  2  0
115 98  1  0
120116  2  0
138121  1  0
 12  7  1  0
 18 14  1  0
 23 19  1  0
 35 30  1  0
 41 37  1  0
 46 42  1  0
 58 53  1  0
 64 60  1  0
 69 65  1  0
 81 76  1  0
 87 83  1  0
 92 88  1  0
104 99  1  0
110106  1  0
115111  1  0
127122  1  0
133129  1  0
138134  1  0
 17 26  1  0
 40 49  1  0
 63 72  1  0
 86 95  1  0
109118  1  0
  1139  1  0
  2140  1  0
  3141  1  0
  9142  1  0
 10143  1  0
 15144  1  0
 16145  1  0
 24146  1  0
 25147  1  0
 32148  1  0
 33149  1  0
 38150  1  0
 39151  1  0
 47152  1  0
 48153  1  0
 55154  1  0
 56155  1  0
 61156  1  0
 62157  1  0
 70158  1  0
 71159  1  0
 78160  1  0
 79161  1  0
 84162  1  0
 85163  1  0
 93164  1  0
 94165  1  0
101166  1  0
102167  1  0
107168  1  0
108169  1  0
116170  1  0
117171  1  0
124172  1  0
125173  1  0
130174  1  0
131175  1  0
132176  1  0
M  END
>  <_StereochemDone>  (30) 
1

>  <File>  (30) 
C-DAD_Hexamer/C-SeTeSe6-UV.gjf

>  <System_Code>  (30) 
SeTeSe

>  <Unit_Type>  (30) 
Hexamer

>  <Family>  (30) 
chalcogendiazoloquinoxaline

>  <InChIKey>  (30) 
GEQPXGNBFMEQBA-UHFFFAOYSA-N

$$$$
C-TeOTe6-UV
     RDKit          3D

176205  0  0  0  0  0  0  0  0999 V2000
   35.3880   -1.8320    0.0007 C   0  0  0  0  0  0  0  0  0  0  0  0
   36.7994   -1.6074    0.0009 C   0  0  0  0  0  0  0  0  0  0  0  0
   37.2356   -0.2895    0.0009 C   0  0  0  0  0  0  0  0  0  0  0  0
   35.6648    1.0791    0.0008 Te  0  0  0  0  0  2  0  0  0  0  0  0
   34.5377   -0.7121    0.0007 C   0  0  0  0  0  0  0  0  0  0  0  0
   33.1068   -0.7378    0.0006 C   0  0  0  0  0  0  0  0  0  0  0  0
   32.3224    0.4665    0.0005 C   0  0  0  0  0  0  0  0  0  0  0  0
   32.9900    1.6698    0.0006 N   0  0  0  0  0  0  0  0  0  0  0  0
   32.3036    2.8207    0.0006 C   0  0  0  0  0  0  0  0  0  0  0  0
   30.8855    2.8250    0.0005 C   0  0  0  0  0  0  0  0  0  0  0  0
   30.2037    1.6661    0.0004 N   0  0  0  0  0  0  0  0  0  0  0  0
   30.8713    0.4713    0.0004 C   0  0  0  0  0  0  0  0  0  0  0  0
   30.0728   -0.7302    0.0003 C   0  0  0  0  0  0  0  0  0  0  0  0
   28.6650   -0.6672    0.0002 C   0  0  0  0  0  0  0  0  0  0  0  0
   27.7779   -1.7934    0.0001 C   0  0  0  0  0  0  0  0  0  0  0  0
   26.4093   -1.5612    0.0000 C   0  0  0  0  0  0  0  0  0  0  0  0
   25.9309   -0.2087    0.0000 C   0  0  0  0  0  0  0  0  0  0  0  0
   27.6139    1.1498    0.0001 Te  0  0  0  0  0  2  0  0  0  0  0  0
   30.8551   -1.9511    0.0004 C   0  0  0  0  0  0  0  0  0  0  0  0
   30.4054   -3.2160    0.0003 N   0  0  0  0  0  0  0  0  0  0  0  0
   31.5830   -4.0269    0.0004 O   0  0  0  0  0  0  0  0  0  0  0  0
   32.7627   -3.2224    0.0005 N   0  0  0  0  0  0  0  0  0  0  0  0
   32.3176   -1.9497    0.0005 C   0  0  0  0  0  0  0  0  0  0  0  0
   22.7489    1.7558   -0.0001 C   0  0  0  0  0  0  0  0  0  0  0  0
   24.1130    1.5183   -0.0000 C   0  0  0  0  0  0  0  0  0  0  0  0
   24.5882    0.1617   -0.0000 C   0  0  0  0  0  0  0  0  0  0  0  0
   22.9026   -1.1959   -0.0001 Te  0  0  0  0  0  2  0  0  0  0  0  0
   21.8546    0.6278   -0.0001 C   0  0  0  0  0  0  0  0  0  0  0  0
   20.4559    0.6931   -0.0002 C   0  0  0  0  0  0  0  0  0  0  0  0
   19.6630   -0.5229   -0.0002 C   0  0  0  0  0  0  0  0  0  0  0  0
   20.3309   -1.7113   -0.0002 N   0  0  0  0  0  0  0  0  0  0  0  0
   19.6420   -2.8779   -0.0002 C   0  0  0  0  0  0  0  0  0  0  0  0
   18.2383   -2.8777   -0.0003 C   0  0  0  0  0  0  0  0  0  0  0  0
   17.5505   -1.7098   -0.0003 N   0  0  0  0  0  0  0  0  0  0  0  0
   18.2192   -0.5227   -0.0003 C   0  0  0  0  0  0  0  0  0  0  0  0
   17.4261    0.6939   -0.0003 C   0  0  0  0  0  0  0  0  0  0  0  0
   16.0295    0.6270   -0.0004 C   0  0  0  0  0  0  0  0  0  0  0  0
   15.1334    1.7582   -0.0004 C   0  0  0  0  0  0  0  0  0  0  0  0
   13.7728    1.5226   -0.0004 C   0  0  0  0  0  0  0  0  0  0  0  0
   13.2940    0.1619   -0.0004 C   0  0  0  0  0  0  0  0  0  0  0  0
   14.9851   -1.1975   -0.0004 Te  0  0  0  0  0  2  0  0  0  0  0  0
   18.2109    1.9199   -0.0003 C   0  0  0  0  0  0  0  0  0  0  0  0
   17.7628    3.1822   -0.0003 N   0  0  0  0  0  0  0  0  0  0  0  0
   18.9427    3.9984   -0.0003 O   0  0  0  0  0  0  0  0  0  0  0  0
   20.1214    3.1813   -0.0002 N   0  0  0  0  0  0  0  0  0  0  0  0
   19.6720    1.9189   -0.0002 C   0  0  0  0  0  0  0  0  0  0  0  0
   10.1185   -1.8004   -0.0005 C   0  0  0  0  0  0  0  0  0  0  0  0
   11.4788   -1.5651   -0.0005 C   0  0  0  0  0  0  0  0  0  0  0  0
   11.9579   -0.2041   -0.0005 C   0  0  0  0  0  0  0  0  0  0  0  0
   10.2672    1.1562   -0.0005 Te  0  0  0  0  0  2  0  0  0  0  0  0
    9.2222   -0.6685   -0.0005 C   0  0  0  0  0  0  0  0  0  0  0  0
    7.8265   -0.7343   -0.0004 C   0  0  0  0  0  0  0  0  0  0  0  0
    7.0355    0.4847   -0.0004 C   0  0  0  0  0  0  0  0  0  0  0  0
    7.7059    1.6702   -0.0004 N   0  0  0  0  0  0  0  0  0  0  0  0
    7.0191    2.8400   -0.0004 C   0  0  0  0  0  0  0  0  0  0  0  0
    5.6169    2.8424   -0.0004 C   0  0  0  0  0  0  0  0  0  0  0  0
    4.9260    1.6750   -0.0004 N   0  0  0  0  0  0  0  0  0  0  0  0
    5.5923    0.4872   -0.0004 C   0  0  0  0  0  0  0  0  0  0  0  0
    4.7970   -0.7290   -0.0004 C   0  0  0  0  0  0  0  0  0  0  0  0
    3.4016   -0.6583   -0.0004 C   0  0  0  0  0  0  0  0  0  0  0  0
    2.5015   -1.7874   -0.0004 C   0  0  0  0  0  0  0  0  0  0  0  0
    1.1422   -1.5477   -0.0003 C   0  0  0  0  0  0  0  0  0  0  0  0
    0.6673   -0.1849   -0.0003 C   0  0  0  0  0  0  0  0  0  0  0  0
    2.3628    1.1699   -0.0003 Te  0  0  0  0  0  2  0  0  0  0  0  0
    5.5791   -1.9573   -0.0004 C   0  0  0  0  0  0  0  0  0  0  0  0
    5.1281   -3.2182   -0.0004 N   0  0  0  0  0  0  0  0  0  0  0  0
    6.3061   -4.0378   -0.0005 O   0  0  0  0  0  0  0  0  0  0  0  0
    7.4867   -3.2223   -0.0005 N   0  0  0  0  0  0  0  0  0  0  0  0
    7.0401   -1.9599   -0.0004 C   0  0  0  0  0  0  0  0  0  0  0  0
   -2.5015    1.7874   -0.0003 C   0  0  0  0  0  0  0  0  0  0  0  0
   -1.1422    1.5477   -0.0003 C   0  0  0  0  0  0  0  0  0  0  0  0
   -0.6673    0.1849   -0.0003 C   0  0  0  0  0  0  0  0  0  0  0  0
   -2.3628   -1.1698   -0.0003 Te  0  0  0  0  0  2  0  0  0  0  0  0
   -3.4016    0.6583   -0.0003 C   0  0  0  0  0  0  0  0  0  0  0  0
   -4.7970    0.7290   -0.0003 C   0  0  0  0  0  0  0  0  0  0  0  0
   -5.5923   -0.4872   -0.0002 C   0  0  0  0  0  0  0  0  0  0  0  0
   -4.9260   -1.6750   -0.0002 N   0  0  0  0  0  0  0  0  0  0  0  0
   -5.6169   -2.8424   -0.0002 C   0  0  0  0  0  0  0  0  0  0  0  0
   -7.0191   -2.8400   -0.0001 C   0  0  0  0  0  0  0  0  0  0  0  0
   -7.7059   -1.6701   -0.0001 N   0  0  0  0  0  0  0  0  0  0  0  0
   -7.0355   -0.4847   -0.0002 C   0  0  0  0  0  0  0  0  0  0  0  0
   -7.8265    0.7343   -0.0002 C   0  0  0  0  0  0  0  0  0  0  0  0
   -9.2222    0.6685   -0.0002 C   0  0  0  0  0  0  0  0  0  0  0  0
  -10.1185    1.8004   -0.0002 C   0  0  0  0  0  0  0  0  0  0  0  0
  -11.4788    1.5651   -0.0001 C   0  0  0  0  0  0  0  0  0  0  0  0
  -11.9579    0.2041   -0.0001 C   0  0  0  0  0  0  0  0  0  0  0  0
  -10.2672   -1.1562   -0.0003 Te  0  0  0  0  0  2  0  0  0  0  0  0
   -7.0401    1.9599   -0.0002 C   0  0  0  0  0  0  0  0  0  0  0  0
   -7.4867    3.2223   -0.0002 N   0  0  0  0  0  0  0  0  0  0  0  0
   -6.3061    4.0378   -0.0002 O   0  0  0  0  0  0  0  0  0  0  0  0
   -5.1281    3.2183   -0.0002 N   0  0  0  0  0  0  0  0  0  0  0  0
   -5.5791    1.9574   -0.0002 C   0  0  0  0  0  0  0  0  0  0  0  0
  -15.1334   -1.7582    0.0001 C   0  0  0  0  0  0  0  0  0  0  0  0
  -13.7728   -1.5226   -0.0000 C   0  0  0  0  0  0  0  0  0  0  0  0
  -13.2940   -0.1619   -0.0000 C   0  0  0  0  0  0  0  0  0  0  0  0
  -14.9851    1.1975    0.0002 Te  0  0  0  0  0  2  0  0  0  0  0  0
  -16.0295   -0.6270    0.0001 C   0  0  0  0  0  0  0  0  0  0  0  0
  -17.4261   -0.6939    0.0002 C   0  0  0  0  0  0  0  0  0  0  0  0
  -18.2192    0.5227    0.0002 C   0  0  0  0  0  0  0  0  0  0  0  0
  -17.5505    1.7098    0.0001 N   0  0  0  0  0  0  0  0  0  0  0  0
  -18.2383    2.8778    0.0001 C   0  0  0  0  0  0  0  0  0  0  0  0
  -19.6420    2.8779    0.0001 C   0  0  0  0  0  0  0  0  0  0  0  0
  -20.3309    1.7113    0.0002 N   0  0  0  0  0  0  0  0  0  0  0  0
  -19.6630    0.5229    0.0002 C   0  0  0  0  0  0  0  0  0  0  0  0
  -20.4559   -0.6931    0.0003 C   0  0  0  0  0  0  0  0  0  0  0  0
  -21.8546   -0.6278    0.0003 C   0  0  0  0  0  0  0  0  0  0  0  0
  -22.7489   -1.7558    0.0003 C   0  0  0  0  0  0  0  0  0  0  0  0
  -24.1130   -1.5183    0.0003 C   0  0  0  0  0  0  0  0  0  0  0  0
  -24.5882   -0.1617    0.0004 C   0  0  0  0  0  0  0  0  0  0  0  0
  -22.9026    1.1959    0.0005 Te  0  0  0  0  0  2  0  0  0  0  0  0
  -19.6720   -1.9189    0.0002 C   0  0  0  0  0  0  0  0  0  0  0  0
  -20.1214   -3.1813    0.0002 N   0  0  0  0  0  0  0  0  0  0  0  0
  -18.9427   -3.9984    0.0001 O   0  0  0  0  0  0  0  0  0  0  0  0
  -17.7628   -3.1822    0.0001 N   0  0  0  0  0  0  0  0  0  0  0  0
  -18.2109   -1.9199    0.0002 C   0  0  0  0  0  0  0  0  0  0  0  0
  -27.7779    1.7934    0.0004 C   0  0  0  0  0  0  0  0  0  0  0  0
  -26.4093    1.5612    0.0004 C   0  0  0  0  0  0  0  0  0  0  0  0
  -25.9309    0.2087    0.0003 C   0  0  0  0  0  0  0  0  0  0  0  0
  -27.6139   -1.1498    0.0003 Te  0  0  0  0  0  2  0  0  0  0  0  0
  -28.6650    0.6672    0.0003 C   0  0  0  0  0  0  0  0  0  0  0  0
  -30.0728    0.7301    0.0003 C   0  0  0  0  0  0  0  0  0  0  0  0
  -30.8713   -0.4714    0.0002 C   0  0  0  0  0  0  0  0  0  0  0  0
  -30.2037   -1.6661    0.0002 N   0  0  0  0  0  0  0  0  0  0  0  0
  -30.8855   -2.8251    0.0001 C   0  0  0  0  0  0  0  0  0  0  0  0
  -32.3036   -2.8207    0.0000 C   0  0  0  0  0  0  0  0  0  0  0  0
  -32.9900   -1.6698    0.0001 N   0  0  0  0  0  0  0  0  0  0  0  0
  -32.3224   -0.4665    0.0002 C   0  0  0  0  0  0  0  0  0  0  0  0
  -33.1068    0.7377    0.0002 C   0  0  0  0  0  0  0  0  0  0  0  0
  -34.5377    0.7120    0.0002 C   0  0  0  0  0  0  0  0  0  0  0  0
  -35.3880    1.8320    0.0002 C   0  0  0  0  0  0  0  0  0  0  0  0
  -36.7994    1.6073    0.0001 C   0  0  0  0  0  0  0  0  0  0  0  0
  -37.2356    0.2894    0.0000 C   0  0  0  0  0  0  0  0  0  0  0  0
  -35.6648   -1.0792    0.0002 Te  0  0  0  0  0  2  0  0  0  0  0  0
  -32.3176    1.9497    0.0003 C   0  0  0  0  0  0  0  0  0  0  0  0
  -32.7627    3.2224    0.0003 N   0  0  0  0  0  0  0  0  0  0  0  0
  -31.5830    4.0269    0.0004 O   0  0  0  0  0  0  0  0  0  0  0  0
  -30.4054    3.2160    0.0004 N   0  0  0  0  0  0  0  0  0  0  0  0
  -30.8551    1.9511    0.0003 C   0  0  0  0  0  0  0  0  0  0  0  0
   34.9800   -2.8375    0.0007 H   0  0  0  0  0  0  0  0  0  0  0  0
   37.4921   -2.4460    0.0009 H   0  0  0  0  0  0  0  0  0  0  0  0
   38.2825   -0.0009    0.0010 H   0  0  0  0  0  0  0  0  0  0  0  0
   32.8705    3.7464    0.0007 H   0  0  0  0  0  0  0  0  0  0  0  0
   30.3166    3.7488    0.0005 H   0  0  0  0  0  0  0  0  0  0  0  0
   28.1841   -2.7997    0.0001 H   0  0  0  0  0  0  0  0  0  0  0  0
   25.7124   -2.3988    0.0000 H   0  0  0  0  0  0  0  0  0  0  0  0
   22.3439    2.7624   -0.0001 H   0  0  0  0  0  0  0  0  0  0  0  0
   24.8136    2.3530   -0.0000 H   0  0  0  0  0  0  0  0  0  0  0  0
   20.2149   -3.7989   -0.0002 H   0  0  0  0  0  0  0  0  0  0  0  0
   17.6645   -3.7981   -0.0003 H   0  0  0  0  0  0  0  0  0  0  0  0
   15.5405    2.7640   -0.0004 H   0  0  0  0  0  0  0  0  0  0  0  0
   13.0718    2.3569   -0.0005 H   0  0  0  0  0  0  0  0  0  0  0  0
    9.7108   -2.8060   -0.0005 H   0  0  0  0  0  0  0  0  0  0  0  0
   12.1797   -2.3995   -0.0005 H   0  0  0  0  0  0  0  0  0  0  0  0
    7.5947    3.7592   -0.0004 H   0  0  0  0  0  0  0  0  0  0  0  0
    5.0445    3.7637   -0.0004 H   0  0  0  0  0  0  0  0  0  0  0  0
    2.9059   -2.7943   -0.0004 H   0  0  0  0  0  0  0  0  0  0  0  0
    0.4384   -2.3797   -0.0004 H   0  0  0  0  0  0  0  0  0  0  0  0
   -2.9059    2.7943   -0.0003 H   0  0  0  0  0  0  0  0  0  0  0  0
   -0.4384    2.3797   -0.0003 H   0  0  0  0  0  0  0  0  0  0  0  0
   -5.0445   -3.7636   -0.0002 H   0  0  0  0  0  0  0  0  0  0  0  0
   -7.5947   -3.7592   -0.0001 H   0  0  0  0  0  0  0  0  0  0  0  0
   -9.7108    2.8060   -0.0001 H   0  0  0  0  0  0  0  0  0  0  0  0
  -12.1797    2.3995   -0.0000 H   0  0  0  0  0  0  0  0  0  0  0  0
  -15.5405   -2.7640    0.0000 H   0  0  0  0  0  0  0  0  0  0  0  0
  -13.0718   -2.3569   -0.0001 H   0  0  0  0  0  0  0  0  0  0  0  0
  -17.6645    3.7982    0.0000 H   0  0  0  0  0  0  0  0  0  0  0  0
  -20.2149    3.7989    0.0001 H   0  0  0  0  0  0  0  0  0  0  0  0
  -22.3439   -2.7624    0.0003 H   0  0  0  0  0  0  0  0  0  0  0  0
  -24.8136   -2.3530    0.0003 H   0  0  0  0  0  0  0  0  0  0  0  0
  -28.1841    2.7996    0.0004 H   0  0  0  0  0  0  0  0  0  0  0  0
  -25.7124    2.3988    0.0004 H   0  0  0  0  0  0  0  0  0  0  0  0
  -30.3166   -3.7489    0.0000 H   0  0  0  0  0  0  0  0  0  0  0  0
  -32.8705   -3.7465   -0.0000 H   0  0  0  0  0  0  0  0  0  0  0  0
  -34.9800    2.8375    0.0002 H   0  0  0  0  0  0  0  0  0  0  0  0
  -37.4921    2.4460    0.0001 H   0  0  0  0  0  0  0  0  0  0  0  0
  -38.2825    0.0008   -0.0000 H   0  0  0  0  0  0  0  0  0  0  0  0
  1  2  1  0
  2  3  2  0
  3  4  1  0
  4  5  1  0
  5  6  1  0
  6  7  2  0
  7  8  1  0
  8  9  2  0
  9 10  1  0
 10 11  2  0
 11 12  1  0
 12 13  2  0
 13 14  1  0
 14 15  2  0
 15 16  1  0
 16 17  2  0
 17 18  1  0
 13 19  1  0
 19 20  2  0
 20 21  1  0
 21 22  1  0
 22 23  2  0
 24 25  1  0
 25 26  2  0
 26 27  1  0
 27 28  1  0
 28 29  1  0
 29 30  2  0
 30 31  1  0
 31 32  2  0
 32 33  1  0
 33 34  2  0
 34 35  1  0
 35 36  2  0
 36 37  1  0
 37 38  2  0
 38 39  1  0
 39 40  2  0
 40 41  1  0
 36 42  1  0
 42 43  2  0
 43 44  1  0
 44 45  1  0
 45 46  2  0
 47 48  1  0
 48 49  2  0
 49 50  1  0
 50 51  1  0
 51 52  1  0
 52 53  2  0
 53 54  1  0
 54 55  2  0
 55 56  1  0
 56 57  2  0
 57 58  1  0
 58 59  2  0
 59 60  1  0
 60 61  2  0
 61 62  1  0
 62 63  2  0
 63 64  1  0
 59 65  1  0
 65 66  2  0
 66 67  1  0
 67 68  1  0
 68 69  2  0
 70 71  1  0
 71 72  2  0
 72 73  1  0
 73 74  1  0
 74 75  1  0
 75 76  2  0
 76 77  1  0
 77 78  2  0
 78 79  1  0
 79 80  2  0
 80 81  1  0
 81 82  2  0
 82 83  1  0
 83 84  2  0
 84 85  1  0
 85 86  2  0
 86 87  1  0
 82 88  1  0
 88 89  2  0
 89 90  1  0
 90 91  1  0
 91 92  2  0
 93 94  1  0
 94 95  2  0
 95 96  1  0
 96 97  1  0
 97 98  1  0
 98 99  2  0
 99100  1  0
100101  2  0
101102  1  0
102103  2  0
103104  1  0
104105  2  0
105106  1  0
106107  2  0
107108  1  0
108109  2  0
109110  1  0
105111  1  0
111112  2  0
112113  1  0
113114  1  0
114115  2  0
116117  1  0
117118  2  0
118119  1  0
119120  1  0
120121  1  0
121122  2  0
122123  1  0
123124  2  0
124125  1  0
125126  2  0
126127  1  0
127128  2  0
128129  1  0
129130  2  0
130131  1  0
131132  2  0
132133  1  0
128134  1  0
134135  2  0
135136  1  0
136137  1  0
137138  2  0
  5  1  2  0
 23  6  1  0
 28 24  2  0
 46 29  1  0
 51 47  2  0
 69 52  1  0
 74 70  2  0
 92 75  1  0
 97 93  2  0
115 98  1  0
120116  2  0
138121  1  0
 12  7  1  0
 18 14  1  0
 23 19  1  0
 35 30  1  0
 41 37  1  0
 46 42  1  0
 58 53  1  0
 64 60  1  0
 69 65  1  0
 81 76  1  0
 87 83  1  0
 92 88  1  0
104 99  1  0
110106  1  0
115111  1  0
127122  1  0
133129  1  0
138134  1  0
 17 26  1  0
 40 49  1  0
 63 72  1  0
 86 95  1  0
109118  1  0
  1139  1  0
  2140  1  0
  3141  1  0
  9142  1  0
 10143  1  0
 15144  1  0
 16145  1  0
 24146  1  0
 25147  1  0
 32148  1  0
 33149  1  0
 38150  1  0
 39151  1  0
 47152  1  0
 48153  1  0
 55154  1  0
 56155  1  0
 61156  1  0
 62157  1  0
 70158  1  0
 71159  1  0
 78160  1  0
 79161  1  0
 84162  1  0
 85163  1  0
 93164  1  0
 94165  1  0
101166  1  0
102167  1  0
107168  1  0
108169  1  0
116170  1  0
117171  1  0
124172  1  0
125173  1  0
130174  1  0
131175  1  0
132176  1  0
M  END
>  <_StereochemDone>  (31) 
1

>  <File>  (31) 
C-DAD_Hexamer/C-TeOTe6-UV.gjf

>  <System_Code>  (31) 
TeOTe

>  <Unit_Type>  (31) 
Hexamer

>  <Family>  (31) 
chalcogendiazoloquinoxaline

>  <InChIKey>  (31) 
GEHMVKHEAFBLCQ-UHFFFAOYSA-N

$$$$
C-TeSTe6-UV
     RDKit          3D

176205  0  0  0  0  0  0  0  0999 V2000
  -35.3803   -1.7866    0.0004 C   0  0  0  0  0  0  0  0  0  0  0  0
  -36.7862   -1.5260    0.0004 C   0  0  0  0  0  0  0  0  0  0  0  0
  -37.1902   -0.1985    0.0004 C   0  0  0  0  0  0  0  0  0  0  0  0
  -35.5832    1.1303    0.0004 Te  0  0  0  0  0  2  0  0  0  0  0  0
  -34.4978   -0.6921    0.0004 C   0  0  0  0  0  0  0  0  0  0  0  0
  -33.0644   -0.7462    0.0003 C   0  0  0  0  0  0  0  0  0  0  0  0
  -32.2781    0.4563    0.0003 C   0  0  0  0  0  0  0  0  0  0  0  0
  -32.9417    1.6605    0.0003 N   0  0  0  0  0  0  0  0  0  0  0  0
  -32.2567    2.8134    0.0003 C   0  0  0  0  0  0  0  0  0  0  0  0
  -30.8414    2.8160    0.0002 C   0  0  0  0  0  0  0  0  0  0  0  0
  -30.1640    1.6532    0.0002 N   0  0  0  0  0  0  0  0  0  0  0  0
  -30.8311    0.4593    0.0002 C   0  0  0  0  0  0  0  0  0  0  0  0
  -30.0349   -0.7429    0.0002 C   0  0  0  0  0  0  0  0  0  0  0  0
  -28.6262   -0.6588    0.0002 C   0  0  0  0  0  0  0  0  0  0  0  0
  -27.7127   -1.7656    0.0002 C   0  0  0  0  0  0  0  0  0  0  0  0
  -26.3496   -1.5071    0.0001 C   0  0  0  0  0  0  0  0  0  0  0  0
  -25.8953   -0.1455    0.0001 C   0  0  0  0  0  0  0  0  0  0  0  0
  -27.6069    1.1812    0.0001 Te  0  0  0  0  0  2  0  0  0  0  0  0
  -30.8028   -1.9844    0.0003 C   0  0  0  0  0  0  0  0  0  0  0  0
  -30.2467   -3.2054    0.0003 N   0  0  0  0  0  0  0  0  0  0  0  0
  -31.5505   -4.4091    0.0003 S   0  0  0  0  0  0  0  0  0  0  0  0
  -32.8508   -3.2080    0.0003 N   0  0  0  0  0  0  0  0  0  0  0  0
  -32.2946   -1.9799    0.0003 C   0  0  0  0  0  0  0  0  0  0  0  0
  -22.7487    1.8739   -0.0000 C   0  0  0  0  0  0  0  0  0  0  0  0
  -24.1080    1.6123   -0.0000 C   0  0  0  0  0  0  0  0  0  0  0  0
  -24.5604    0.2475    0.0000 C   0  0  0  0  0  0  0  0  0  0  0  0
  -22.8478   -1.0802   -0.0000 Te  0  0  0  0  0  2  0  0  0  0  0  0
  -21.8295    0.7649   -0.0000 C   0  0  0  0  0  0  0  0  0  0  0  0
  -20.4292    0.8496   -0.0001 C   0  0  0  0  0  0  0  0  0  0  0  0
  -19.6395   -0.3670   -0.0000 C   0  0  0  0  0  0  0  0  0  0  0  0
  -20.3081   -1.5544    0.0000 N   0  0  0  0  0  0  0  0  0  0  0  0
  -19.6250   -2.7252    0.0001 C   0  0  0  0  0  0  0  0  0  0  0  0
  -18.2235   -2.7283    0.0000 C   0  0  0  0  0  0  0  0  0  0  0  0
  -17.5354   -1.5600   -0.0000 N   0  0  0  0  0  0  0  0  0  0  0  0
  -18.1991   -0.3701   -0.0000 C   0  0  0  0  0  0  0  0  0  0  0  0
  -17.4038    0.8429   -0.0001 C   0  0  0  0  0  0  0  0  0  0  0  0
  -16.0053    0.7506   -0.0001 C   0  0  0  0  0  0  0  0  0  0  0  0
  -15.0797    1.8579   -0.0001 C   0  0  0  0  0  0  0  0  0  0  0  0
  -13.7244    1.5916   -0.0001 C   0  0  0  0  0  0  0  0  0  0  0  0
  -13.2752    0.2214   -0.0001 C   0  0  0  0  0  0  0  0  0  0  0  0
  -14.9982   -1.0995   -0.0001 Te  0  0  0  0  0  2  0  0  0  0  0  0
  -18.1685    2.0924   -0.0001 C   0  0  0  0  0  0  0  0  0  0  0  0
  -17.6097    3.3088   -0.0001 N   0  0  0  0  0  0  0  0  0  0  0  0
  -18.9094    4.5248   -0.0001 S   0  0  0  0  0  0  0  0  0  0  0  0
  -20.2132    3.3142   -0.0001 N   0  0  0  0  0  0  0  0  0  0  0  0
  -19.6590    2.0952   -0.0001 C   0  0  0  0  0  0  0  0  0  0  0  0
  -10.1437   -1.8114   -0.0001 C   0  0  0  0  0  0  0  0  0  0  0  0
  -11.4986   -1.5447   -0.0001 C   0  0  0  0  0  0  0  0  0  0  0  0
  -11.9474   -0.1741   -0.0001 C   0  0  0  0  0  0  0  0  0  0  0  0
  -10.2239    1.1469   -0.0001 Te  0  0  0  0  0  2  0  0  0  0  0  0
   -9.2173   -0.7039   -0.0001 C   0  0  0  0  0  0  0  0  0  0  0  0
   -7.8198   -0.7963   -0.0001 C   0  0  0  0  0  0  0  0  0  0  0  0
   -7.0250    0.4181   -0.0002 C   0  0  0  0  0  0  0  0  0  0  0  0
   -7.6889    1.6070   -0.0002 N   0  0  0  0  0  0  0  0  0  0  0  0
   -7.0008    2.7763   -0.0002 C   0  0  0  0  0  0  0  0  0  0  0  0
   -5.6004    2.7737   -0.0002 C   0  0  0  0  0  0  0  0  0  0  0  0
   -4.9165    1.6020   -0.0002 N   0  0  0  0  0  0  0  0  0  0  0  0
   -5.5849    0.4154   -0.0002 C   0  0  0  0  0  0  0  0  0  0  0  0
   -4.7947   -0.8019   -0.0002 C   0  0  0  0  0  0  0  0  0  0  0  0
   -3.3967   -0.7146   -0.0002 C   0  0  0  0  0  0  0  0  0  0  0  0
   -2.4745   -1.8257   -0.0002 C   0  0  0  0  0  0  0  0  0  0  0  0
   -1.1187   -1.5641   -0.0002 C   0  0  0  0  0  0  0  0  0  0  0  0
   -0.6645   -0.1951   -0.0002 C   0  0  0  0  0  0  0  0  0  0  0  0
   -2.3831    1.1322   -0.0002 Te  0  0  0  0  0  2  0  0  0  0  0  0
   -5.5643   -2.0489   -0.0002 C   0  0  0  0  0  0  0  0  0  0  0  0
   -5.0101   -3.2671   -0.0002 N   0  0  0  0  0  0  0  0  0  0  0  0
   -6.3140   -4.4789   -0.0001 S   0  0  0  0  0  0  0  0  0  0  0  0
   -7.6134   -3.2623   -0.0001 N   0  0  0  0  0  0  0  0  0  0  0  0
   -7.0547   -2.0462   -0.0001 C   0  0  0  0  0  0  0  0  0  0  0  0
    2.4745    1.8257   -0.0003 C   0  0  0  0  0  0  0  0  0  0  0  0
    1.1187    1.5642   -0.0003 C   0  0  0  0  0  0  0  0  0  0  0  0
    0.6645    0.1952   -0.0003 C   0  0  0  0  0  0  0  0  0  0  0  0
    2.3831   -1.1322   -0.0003 Te  0  0  0  0  0  2  0  0  0  0  0  0
    3.3967    0.7147   -0.0003 C   0  0  0  0  0  0  0  0  0  0  0  0
    4.7947    0.8019   -0.0003 C   0  0  0  0  0  0  0  0  0  0  0  0
    5.5849   -0.4153   -0.0003 C   0  0  0  0  0  0  0  0  0  0  0  0
    4.9165   -1.6019   -0.0002 N   0  0  0  0  0  0  0  0  0  0  0  0
    5.6004   -2.7737   -0.0002 C   0  0  0  0  0  0  0  0  0  0  0  0
    7.0008   -2.7763   -0.0002 C   0  0  0  0  0  0  0  0  0  0  0  0
    7.6889   -1.6070   -0.0002 N   0  0  0  0  0  0  0  0  0  0  0  0
    7.0250   -0.4180   -0.0002 C   0  0  0  0  0  0  0  0  0  0  0  0
    7.8198    0.7964   -0.0002 C   0  0  0  0  0  0  0  0  0  0  0  0
    9.2173    0.7040   -0.0002 C   0  0  0  0  0  0  0  0  0  0  0  0
   10.1437    1.8114   -0.0002 C   0  0  0  0  0  0  0  0  0  0  0  0
   11.4986    1.5448   -0.0002 C   0  0  0  0  0  0  0  0  0  0  0  0
   11.9474    0.1741   -0.0002 C   0  0  0  0  0  0  0  0  0  0  0  0
   10.2239   -1.1468   -0.0002 Te  0  0  0  0  0  2  0  0  0  0  0  0
    7.0547    2.0463   -0.0003 C   0  0  0  0  0  0  0  0  0  0  0  0
    7.6134    3.2624   -0.0003 N   0  0  0  0  0  0  0  0  0  0  0  0
    6.3141    4.4790   -0.0003 S   0  0  0  0  0  0  0  0  0  0  0  0
    5.0101    3.2672   -0.0003 N   0  0  0  0  0  0  0  0  0  0  0  0
    5.5643    2.0490   -0.0003 C   0  0  0  0  0  0  0  0  0  0  0  0
   15.0797   -1.8579   -0.0002 C   0  0  0  0  0  0  0  0  0  0  0  0
   13.7243   -1.5915   -0.0002 C   0  0  0  0  0  0  0  0  0  0  0  0
   13.2752   -0.2213   -0.0002 C   0  0  0  0  0  0  0  0  0  0  0  0
   14.9982    1.0995   -0.0002 Te  0  0  0  0  0  2  0  0  0  0  0  0
   16.0053   -0.7505   -0.0002 C   0  0  0  0  0  0  0  0  0  0  0  0
   17.4038   -0.8429   -0.0002 C   0  0  0  0  0  0  0  0  0  0  0  0
   18.1991    0.3701   -0.0001 C   0  0  0  0  0  0  0  0  0  0  0  0
   17.5354    1.5600   -0.0001 N   0  0  0  0  0  0  0  0  0  0  0  0
   18.2235    2.7283   -0.0000 C   0  0  0  0  0  0  0  0  0  0  0  0
   19.6251    2.7252    0.0000 C   0  0  0  0  0  0  0  0  0  0  0  0
   20.3081    1.5544   -0.0000 N   0  0  0  0  0  0  0  0  0  0  0  0
   19.6395    0.3670   -0.0001 C   0  0  0  0  0  0  0  0  0  0  0  0
   20.4292   -0.8496   -0.0001 C   0  0  0  0  0  0  0  0  0  0  0  0
   21.8295   -0.7649   -0.0000 C   0  0  0  0  0  0  0  0  0  0  0  0
   22.7487   -1.8739   -0.0000 C   0  0  0  0  0  0  0  0  0  0  0  0
   24.1080   -1.6124   -0.0000 C   0  0  0  0  0  0  0  0  0  0  0  0
   24.5604   -0.2475    0.0000 C   0  0  0  0  0  0  0  0  0  0  0  0
   22.8478    1.0801    0.0000 Te  0  0  0  0  0  2  0  0  0  0  0  0
   19.6590   -2.0952   -0.0001 C   0  0  0  0  0  0  0  0  0  0  0  0
   20.2131   -3.3142   -0.0001 N   0  0  0  0  0  0  0  0  0  0  0  0
   18.9094   -4.5248   -0.0002 S   0  0  0  0  0  0  0  0  0  0  0  0
   17.6097   -3.3088   -0.0002 N   0  0  0  0  0  0  0  0  0  0  0  0
   18.1685   -2.0924   -0.0002 C   0  0  0  0  0  0  0  0  0  0  0  0
   27.7127    1.7655    0.0002 C   0  0  0  0  0  0  0  0  0  0  0  0
   26.3496    1.5070    0.0001 C   0  0  0  0  0  0  0  0  0  0  0  0
   25.8953    0.1455    0.0001 C   0  0  0  0  0  0  0  0  0  0  0  0
   27.6069   -1.1813    0.0001 Te  0  0  0  0  0  2  0  0  0  0  0  0
   28.6262    0.6588    0.0002 C   0  0  0  0  0  0  0  0  0  0  0  0
   30.0349    0.7428    0.0003 C   0  0  0  0  0  0  0  0  0  0  0  0
   30.8311   -0.4593    0.0003 C   0  0  0  0  0  0  0  0  0  0  0  0
   30.1639   -1.6533    0.0002 N   0  0  0  0  0  0  0  0  0  0  0  0
   30.8414   -2.8161    0.0002 C   0  0  0  0  0  0  0  0  0  0  0  0
   32.2567   -2.8135    0.0003 C   0  0  0  0  0  0  0  0  0  0  0  0
   32.9417   -1.6606    0.0003 N   0  0  0  0  0  0  0  0  0  0  0  0
   32.2781   -0.4564    0.0003 C   0  0  0  0  0  0  0  0  0  0  0  0
   33.0644    0.7461    0.0004 C   0  0  0  0  0  0  0  0  0  0  0  0
   34.4978    0.6919    0.0005 C   0  0  0  0  0  0  0  0  0  0  0  0
   35.3804    1.7865    0.0005 C   0  0  0  0  0  0  0  0  0  0  0  0
   36.7863    1.5259    0.0005 C   0  0  0  0  0  0  0  0  0  0  0  0
   37.1902    0.1983    0.0005 C   0  0  0  0  0  0  0  0  0  0  0  0
   35.5832   -1.1305    0.0005 Te  0  0  0  0  0  2  0  0  0  0  0  0
   32.2946    1.9798    0.0004 C   0  0  0  0  0  0  0  0  0  0  0  0
   32.8509    3.2079    0.0004 N   0  0  0  0  0  0  0  0  0  0  0  0
   31.5505    4.4090    0.0004 S   0  0  0  0  0  0  0  0  0  0  0  0
   30.2467    3.2053    0.0003 N   0  0  0  0  0  0  0  0  0  0  0  0
   30.8028    1.9844    0.0003 C   0  0  0  0  0  0  0  0  0  0  0  0
  -34.9881   -2.7972    0.0004 H   0  0  0  0  0  0  0  0  0  0  0  0
  -37.4985   -2.3485    0.0005 H   0  0  0  0  0  0  0  0  0  0  0  0
  -38.2301    0.1151    0.0005 H   0  0  0  0  0  0  0  0  0  0  0  0
  -32.8254    3.7381    0.0003 H   0  0  0  0  0  0  0  0  0  0  0  0
  -30.2683    3.7373    0.0002 H   0  0  0  0  0  0  0  0  0  0  0  0
  -28.1104   -2.7741    0.0002 H   0  0  0  0  0  0  0  0  0  0  0  0
  -25.6369   -2.3316    0.0001 H   0  0  0  0  0  0  0  0  0  0  0  0
  -22.3510    2.8825   -0.0001 H   0  0  0  0  0  0  0  0  0  0  0  0
  -24.8231    2.4347    0.0000 H   0  0  0  0  0  0  0  0  0  0  0  0
  -20.2028   -3.6432    0.0001 H   0  0  0  0  0  0  0  0  0  0  0  0
  -17.6494   -3.6487    0.0001 H   0  0  0  0  0  0  0  0  0  0  0  0
  -15.4745    2.8676   -0.0001 H   0  0  0  0  0  0  0  0  0  0  0  0
  -13.0051    2.4105   -0.0001 H   0  0  0  0  0  0  0  0  0  0  0  0
   -9.7488   -2.8211   -0.0001 H   0  0  0  0  0  0  0  0  0  0  0  0
  -12.2181   -2.3634   -0.0001 H   0  0  0  0  0  0  0  0  0  0  0  0
   -7.5755    3.6963   -0.0002 H   0  0  0  0  0  0  0  0  0  0  0  0
   -5.0224    3.6916   -0.0002 H   0  0  0  0  0  0  0  0  0  0  0  0
   -2.8731   -2.8338   -0.0002 H   0  0  0  0  0  0  0  0  0  0  0  0
   -0.4023   -2.3855   -0.0002 H   0  0  0  0  0  0  0  0  0  0  0  0
    2.8732    2.8339   -0.0003 H   0  0  0  0  0  0  0  0  0  0  0  0
    0.4023    2.3856   -0.0003 H   0  0  0  0  0  0  0  0  0  0  0  0
    5.0224   -3.6915   -0.0002 H   0  0  0  0  0  0  0  0  0  0  0  0
    7.5755   -3.6962   -0.0002 H   0  0  0  0  0  0  0  0  0  0  0  0
    9.7489    2.8211   -0.0002 H   0  0  0  0  0  0  0  0  0  0  0  0
   12.2181    2.3634   -0.0002 H   0  0  0  0  0  0  0  0  0  0  0  0
   15.4745   -2.8676   -0.0002 H   0  0  0  0  0  0  0  0  0  0  0  0
   13.0051   -2.4104   -0.0003 H   0  0  0  0  0  0  0  0  0  0  0  0
   17.6494    3.6487   -0.0000 H   0  0  0  0  0  0  0  0  0  0  0  0
   20.2029    3.6432    0.0001 H   0  0  0  0  0  0  0  0  0  0  0  0
   22.3510   -2.8825   -0.0001 H   0  0  0  0  0  0  0  0  0  0  0  0
   24.8231   -2.4348    0.0000 H   0  0  0  0  0  0  0  0  0  0  0  0
   28.1105    2.7740    0.0002 H   0  0  0  0  0  0  0  0  0  0  0  0
   25.6369    2.3316    0.0001 H   0  0  0  0  0  0  0  0  0  0  0  0
   30.2683   -3.7374    0.0002 H   0  0  0  0  0  0  0  0  0  0  0  0
   32.8254   -3.7382    0.0003 H   0  0  0  0  0  0  0  0  0  0  0  0
   34.9882    2.7971    0.0005 H   0  0  0  0  0  0  0  0  0  0  0  0
   37.4985    2.3483    0.0006 H   0  0  0  0  0  0  0  0  0  0  0  0
   38.2301   -0.1152    0.0006 H   0  0  0  0  0  0  0  0  0  0  0  0
  1  2  1  0
  2  3  2  0
  3  4  1  0
  4  5  1  0
  5  6  1  0
  6  7  2  0
  7  8  1  0
  8  9  2  0
  9 10  1  0
 10 11  2  0
 11 12  1  0
 12 13  2  0
 13 14  1  0
 14 15  2  0
 15 16  1  0
 16 17  2  0
 17 18  1  0
 13 19  1  0
 19 20  2  0
 20 21  1  0
 21 22  1  0
 22 23  2  0
 24 25  1  0
 25 26  2  0
 26 27  1  0
 27 28  1  0
 28 29  1  0
 29 30  2  0
 30 31  1  0
 31 32  2  0
 32 33  1  0
 33 34  2  0
 34 35  1  0
 35 36  2  0
 36 37  1  0
 37 38  2  0
 38 39  1  0
 39 40  2  0
 40 41  1  0
 36 42  1  0
 42 43  2  0
 43 44  1  0
 44 45  1  0
 45 46  2  0
 47 48  1  0
 48 49  2  0
 49 50  1  0
 50 51  1  0
 51 52  1  0
 52 53  2  0
 53 54  1  0
 54 55  2  0
 55 56  1  0
 56 57  2  0
 57 58  1  0
 58 59  2  0
 59 60  1  0
 60 61  2  0
 61 62  1  0
 62 63  2  0
 63 64  1  0
 59 65  1  0
 65 66  2  0
 66 67  1  0
 67 68  1  0
 68 69  2  0
 70 71  1  0
 71 72  2  0
 72 73  1  0
 73 74  1  0
 74 75  1  0
 75 76  2  0
 76 77  1  0
 77 78  2  0
 78 79  1  0
 79 80  2  0
 80 81  1  0
 81 82  2  0
 82 83  1  0
 83 84  2  0
 84 85  1  0
 85 86  2  0
 86 87  1  0
 82 88  1  0
 88 89  2  0
 89 90  1  0
 90 91  1  0
 91 92  2  0
 93 94  1  0
 94 95  2  0
 95 96  1  0
 96 97  1  0
 97 98  1  0
 98 99  2  0
 99100  1  0
100101  2  0
101102  1  0
102103  2  0
103104  1  0
104105  2  0
105106  1  0
106107  2  0
107108  1  0
108109  2  0
109110  1  0
105111  1  0
111112  2  0
112113  1  0
113114  1  0
114115  2  0
116117  1  0
117118  2  0
118119  1  0
119120  1  0
120121  1  0
121122  2  0
122123  1  0
123124  2  0
124125  1  0
125126  2  0
126127  1  0
127128  2  0
128129  1  0
129130  2  0
130131  1  0
131132  2  0
132133  1  0
128134  1  0
134135  2  0
135136  1  0
136137  1  0
137138  2  0
  5  1  2  0
 23  6  1  0
 28 24  2  0
 46 29  1  0
 51 47  2  0
 69 52  1  0
 74 70  2  0
 92 75  1  0
 97 93  2  0
115 98  1  0
120116  2  0
138121  1  0
 12  7  1  0
 18 14  1  0
 23 19  1  0
 35 30  1  0
 41 37  1  0
 46 42  1  0
 58 53  1  0
 64 60  1  0
 69 65  1  0
 81 76  1  0
 87 83  1  0
 92 88  1  0
104 99  1  0
110106  1  0
115111  1  0
127122  1  0
133129  1  0
138134  1  0
 17 26  1  0
 40 49  1  0
 63 72  1  0
 86 95  1  0
109118  1  0
  1139  1  0
  2140  1  0
  3141  1  0
  9142  1  0
 10143  1  0
 15144  1  0
 16145  1  0
 24146  1  0
 25147  1  0
 32148  1  0
 33149  1  0
 38150  1  0
 39151  1  0
 47152  1  0
 48153  1  0
 55154  1  0
 56155  1  0
 61156  1  0
 62157  1  0
 70158  1  0
 71159  1  0
 78160  1  0
 79161  1  0
 84162  1  0
 85163  1  0
 93164  1  0
 94165  1  0
101166  1  0
102167  1  0
107168  1  0
108169  1  0
116170  1  0
117171  1  0
124172  1  0
125173  1  0
130174  1  0
131175  1  0
132176  1  0
M  END
>  <_StereochemDone>  (32) 
1

>  <File>  (32) 
C-DAD_Hexamer/C-TeSTe6-UV.gjf

>  <System_Code>  (32) 
TeSTe

>  <Unit_Type>  (32) 
Hexamer

>  <Family>  (32) 
chalcogendiazoloquinoxaline

>  <InChIKey>  (32) 
WHWJGPLANJTBER-UHFFFAOYSA-N

$$$$
C-TeSeTe6-UV
     RDKit          3D

176205  0  0  0  0  0  0  0  0999 V2000
   35.3856    1.6501    0.0002 C   0  0  0  0  0  0  0  0  0  0  0  0
   36.7884    1.3716    0.0003 C   0  0  0  0  0  0  0  0  0  0  0  0
   37.1757    0.0394    0.0003 C   0  0  0  0  0  0  0  0  0  0  0  0
   35.5509   -1.2687    0.0002 Te  0  0  0  0  0  2  0  0  0  0  0  0
   34.4873    0.5686    0.0002 C   0  0  0  0  0  0  0  0  0  0  0  0
   33.0533    0.6381    0.0002 C   0  0  0  0  0  0  0  0  0  0  0  0
   32.2623   -0.5611    0.0002 C   0  0  0  0  0  0  0  0  0  0  0  0
   32.9201   -1.7682    0.0002 N   0  0  0  0  0  0  0  0  0  0  0  0
   32.2314   -2.9193    0.0002 C   0  0  0  0  0  0  0  0  0  0  0  0
   30.8171   -2.9163    0.0002 C   0  0  0  0  0  0  0  0  0  0  0  0
   30.1451   -1.7498    0.0001 N   0  0  0  0  0  0  0  0  0  0  0  0
   30.8161   -0.5583    0.0001 C   0  0  0  0  0  0  0  0  0  0  0  0
   30.0250    0.6471    0.0001 C   0  0  0  0  0  0  0  0  0  0  0  0
   28.6158    0.5603    0.0001 C   0  0  0  0  0  0  0  0  0  0  0  0
   27.6960    1.6626    0.0001 C   0  0  0  0  0  0  0  0  0  0  0  0
   26.3341    1.3993    0.0000 C   0  0  0  0  0  0  0  0  0  0  0  0
   25.8840    0.0362    0.0000 C   0  0  0  0  0  0  0  0  0  0  0  0
   27.6013   -1.2845    0.0000 Te  0  0  0  0  0  2  0  0  0  0  0  0
   30.7931    1.8933    0.0001 C   0  0  0  0  0  0  0  0  0  0  0  0
   30.2149    3.1025    0.0001 N   0  0  0  0  0  0  0  0  0  0  0  0
   31.5569    4.4162    0.0002 Se  0  0  0  0  0  2  0  0  0  0  0  0
   32.8831    3.0936    0.0002 N   0  0  0  0  0  0  0  0  0  0  0  0
   32.2942    1.8822    0.0002 C   0  0  0  0  0  0  0  0  0  0  0  0
   22.7435   -1.9923   -0.0000 C   0  0  0  0  0  0  0  0  0  0  0  0
   24.1018   -1.7266   -0.0000 C   0  0  0  0  0  0  0  0  0  0  0  0
   24.5505   -0.3604    0.0000 C   0  0  0  0  0  0  0  0  0  0  0  0
   22.8325    0.9617    0.0000 Te  0  0  0  0  0  2  0  0  0  0  0  0
   21.8185   -0.8877   -0.0000 C   0  0  0  0  0  0  0  0  0  0  0  0
   20.4174   -0.9747   -0.0000 C   0  0  0  0  0  0  0  0  0  0  0  0
   19.6330    0.2450   -0.0000 C   0  0  0  0  0  0  0  0  0  0  0  0
   20.3057    1.4299    0.0000 N   0  0  0  0  0  0  0  0  0  0  0  0
   19.6286    2.6044    0.0000 C   0  0  0  0  0  0  0  0  0  0  0  0
   18.2278    2.6135    0.0000 C   0  0  0  0  0  0  0  0  0  0  0  0
   17.5357    1.4474   -0.0000 N   0  0  0  0  0  0  0  0  0  0  0  0
   18.1931    0.2541   -0.0000 C   0  0  0  0  0  0  0  0  0  0  0  0
   17.3928   -0.9550   -0.0001 C   0  0  0  0  0  0  0  0  0  0  0  0
   15.9943   -0.8484   -0.0001 C   0  0  0  0  0  0  0  0  0  0  0  0
   15.0535   -1.9431   -0.0001 C   0  0  0  0  0  0  0  0  0  0  0  0
   13.7013   -1.6608   -0.0001 C   0  0  0  0  0  0  0  0  0  0  0  0
   13.2679   -0.2859   -0.0001 C   0  0  0  0  0  0  0  0  0  0  0  0
   15.0071    1.0144   -0.0001 Te  0  0  0  0  0  2  0  0  0  0  0  0
   18.1470   -2.2154   -0.0001 C   0  0  0  0  0  0  0  0  0  0  0  0
   17.5563   -3.4152   -0.0001 N   0  0  0  0  0  0  0  0  0  0  0  0
   18.8816   -4.7529   -0.0001 Se  0  0  0  0  0  2  0  0  0  0  0  0
   20.2226   -3.4321   -0.0001 N   0  0  0  0  0  0  0  0  0  0  0  0
   19.6468   -2.2247   -0.0001 C   0  0  0  0  0  0  0  0  0  0  0  0
   10.1600    1.7830   -0.0001 C   0  0  0  0  0  0  0  0  0  0  0  0
   11.5118    1.5003   -0.0001 C   0  0  0  0  0  0  0  0  0  0  0  0
   11.9447    0.1248   -0.0001 C   0  0  0  0  0  0  0  0  0  0  0  0
   10.2049   -1.1753   -0.0001 Te  0  0  0  0  0  2  0  0  0  0  0  0
    9.2184    0.6884   -0.0001 C   0  0  0  0  0  0  0  0  0  0  0  0
    7.8208    0.7952   -0.0001 C   0  0  0  0  0  0  0  0  0  0  0  0
    7.0207   -0.4152   -0.0001 C   0  0  0  0  0  0  0  0  0  0  0  0
    7.6783   -1.6076   -0.0001 N   0  0  0  0  0  0  0  0  0  0  0  0
    6.9859   -2.7745   -0.0001 C   0  0  0  0  0  0  0  0  0  0  0  0
    5.5862   -2.7657   -0.0001 C   0  0  0  0  0  0  0  0  0  0  0  0
    4.9085   -1.5902   -0.0001 N   0  0  0  0  0  0  0  0  0  0  0  0
    5.5811   -0.4060   -0.0001 C   0  0  0  0  0  0  0  0  0  0  0  0
    4.7965    0.8143   -0.0001 C   0  0  0  0  0  0  0  0  0  0  0  0
    3.3975    0.7253   -0.0001 C   0  0  0  0  0  0  0  0  0  0  0  0
    2.4700    1.8320   -0.0001 C   0  0  0  0  0  0  0  0  0  0  0  0
    1.1148    1.5667   -0.0001 C   0  0  0  0  0  0  0  0  0  0  0  0
    0.6640    0.1968   -0.0001 C   0  0  0  0  0  0  0  0  0  0  0  0
    2.3872   -1.1254   -0.0001 Te  0  0  0  0  0  2  0  0  0  0  0  0
    5.5667    2.0655   -0.0001 C   0  0  0  0  0  0  0  0  0  0  0  0
    4.9911    3.2723   -0.0001 N   0  0  0  0  0  0  0  0  0  0  0  0
    6.3326    4.5941   -0.0000 Se  0  0  0  0  0  2  0  0  0  0  0  0
    7.6573    3.2555   -0.0001 N   0  0  0  0  0  0  0  0  0  0  0  0
    7.0665    2.0561   -0.0001 C   0  0  0  0  0  0  0  0  0  0  0  0
   -2.4700   -1.8319   -0.0002 C   0  0  0  0  0  0  0  0  0  0  0  0
   -1.1148   -1.5666   -0.0001 C   0  0  0  0  0  0  0  0  0  0  0  0
   -0.6640   -0.1968   -0.0001 C   0  0  0  0  0  0  0  0  0  0  0  0
   -2.3872    1.1254   -0.0001 Te  0  0  0  0  0  2  0  0  0  0  0  0
   -3.3975   -0.7252   -0.0001 C   0  0  0  0  0  0  0  0  0  0  0  0
   -4.7965   -0.8143   -0.0001 C   0  0  0  0  0  0  0  0  0  0  0  0
   -5.5811    0.4061   -0.0001 C   0  0  0  0  0  0  0  0  0  0  0  0
   -4.9085    1.5903   -0.0001 N   0  0  0  0  0  0  0  0  0  0  0  0
   -5.5862    2.7657   -0.0001 C   0  0  0  0  0  0  0  0  0  0  0  0
   -6.9859    2.7746   -0.0001 C   0  0  0  0  0  0  0  0  0  0  0  0
   -7.6783    1.6077   -0.0001 N   0  0  0  0  0  0  0  0  0  0  0  0
   -7.0207    0.4152   -0.0001 C   0  0  0  0  0  0  0  0  0  0  0  0
   -7.8208   -0.7952   -0.0002 C   0  0  0  0  0  0  0  0  0  0  0  0
   -9.2184   -0.6883   -0.0002 C   0  0  0  0  0  0  0  0  0  0  0  0
  -10.1600   -1.7830   -0.0002 C   0  0  0  0  0  0  0  0  0  0  0  0
  -11.5118   -1.5003   -0.0002 C   0  0  0  0  0  0  0  0  0  0  0  0
  -11.9447   -0.1248   -0.0001 C   0  0  0  0  0  0  0  0  0  0  0  0
  -10.2049    1.1753   -0.0001 Te  0  0  0  0  0  2  0  0  0  0  0  0
   -7.0665   -2.0560   -0.0002 C   0  0  0  0  0  0  0  0  0  0  0  0
   -7.6573   -3.2554   -0.0002 N   0  0  0  0  0  0  0  0  0  0  0  0
   -6.3326   -4.5940   -0.0002 Se  0  0  0  0  0  2  0  0  0  0  0  0
   -4.9911   -3.2723   -0.0002 N   0  0  0  0  0  0  0  0  0  0  0  0
   -5.5667   -2.0655   -0.0002 C   0  0  0  0  0  0  0  0  0  0  0  0
  -15.0535    1.9431   -0.0001 C   0  0  0  0  0  0  0  0  0  0  0  0
  -13.7013    1.6609   -0.0001 C   0  0  0  0  0  0  0  0  0  0  0  0
  -13.2679    0.2859   -0.0001 C   0  0  0  0  0  0  0  0  0  0  0  0
  -15.0071   -1.0143   -0.0001 Te  0  0  0  0  0  2  0  0  0  0  0  0
  -15.9943    0.8485   -0.0001 C   0  0  0  0  0  0  0  0  0  0  0  0
  -17.3928    0.9551   -0.0000 C   0  0  0  0  0  0  0  0  0  0  0  0
  -18.1931   -0.2541   -0.0000 C   0  0  0  0  0  0  0  0  0  0  0  0
  -17.5357   -1.4474   -0.0001 N   0  0  0  0  0  0  0  0  0  0  0  0
  -18.2278   -2.6135   -0.0001 C   0  0  0  0  0  0  0  0  0  0  0  0
  -19.6286   -2.6044   -0.0000 C   0  0  0  0  0  0  0  0  0  0  0  0
  -20.3057   -1.4299   -0.0000 N   0  0  0  0  0  0  0  0  0  0  0  0
  -19.6330   -0.2450   -0.0000 C   0  0  0  0  0  0  0  0  0  0  0  0
  -20.4174    0.9747    0.0000 C   0  0  0  0  0  0  0  0  0  0  0  0
  -21.8185    0.8877    0.0000 C   0  0  0  0  0  0  0  0  0  0  0  0
  -22.7435    1.9923    0.0001 C   0  0  0  0  0  0  0  0  0  0  0  0
  -24.1018    1.7265    0.0001 C   0  0  0  0  0  0  0  0  0  0  0  0
  -24.5505    0.3604    0.0001 C   0  0  0  0  0  0  0  0  0  0  0  0
  -22.8325   -0.9617    0.0000 Te  0  0  0  0  0  2  0  0  0  0  0  0
  -19.6468    2.2247    0.0000 C   0  0  0  0  0  0  0  0  0  0  0  0
  -20.2227    3.4321    0.0000 N   0  0  0  0  0  0  0  0  0  0  0  0
  -18.8816    4.7529    0.0000 Se  0  0  0  0  0  2  0  0  0  0  0  0
  -17.5563    3.4152   -0.0000 N   0  0  0  0  0  0  0  0  0  0  0  0
  -18.1470    2.2154   -0.0000 C   0  0  0  0  0  0  0  0  0  0  0  0
  -27.6960   -1.6626    0.0001 C   0  0  0  0  0  0  0  0  0  0  0  0
  -26.3341   -1.3993    0.0001 C   0  0  0  0  0  0  0  0  0  0  0  0
  -25.8840   -0.0362    0.0001 C   0  0  0  0  0  0  0  0  0  0  0  0
  -27.6013    1.2845    0.0002 Te  0  0  0  0  0  2  0  0  0  0  0  0
  -28.6158   -0.5604    0.0001 C   0  0  0  0  0  0  0  0  0  0  0  0
  -30.0250   -0.6472    0.0001 C   0  0  0  0  0  0  0  0  0  0  0  0
  -30.8161    0.5582    0.0002 C   0  0  0  0  0  0  0  0  0  0  0  0
  -30.1451    1.7497    0.0002 N   0  0  0  0  0  0  0  0  0  0  0  0
  -30.8171    2.9162    0.0002 C   0  0  0  0  0  0  0  0  0  0  0  0
  -32.2314    2.9192    0.0002 C   0  0  0  0  0  0  0  0  0  0  0  0
  -32.9201    1.7681    0.0002 N   0  0  0  0  0  0  0  0  0  0  0  0
  -32.2623    0.5610    0.0002 C   0  0  0  0  0  0  0  0  0  0  0  0
  -33.0533   -0.6381    0.0002 C   0  0  0  0  0  0  0  0  0  0  0  0
  -34.4873   -0.5687    0.0002 C   0  0  0  0  0  0  0  0  0  0  0  0
  -35.3856   -1.6502    0.0002 C   0  0  0  0  0  0  0  0  0  0  0  0
  -36.7884   -1.3717    0.0002 C   0  0  0  0  0  0  0  0  0  0  0  0
  -37.1757   -0.0395    0.0003 C   0  0  0  0  0  0  0  0  0  0  0  0
  -35.5509    1.2686    0.0002 Te  0  0  0  0  0  2  0  0  0  0  0  0
  -32.2942   -1.8822    0.0002 C   0  0  0  0  0  0  0  0  0  0  0  0
  -32.8831   -3.0937    0.0001 N   0  0  0  0  0  0  0  0  0  0  0  0
  -31.5569   -4.4163    0.0001 Se  0  0  0  0  0  2  0  0  0  0  0  0
  -30.2149   -3.1025    0.0001 N   0  0  0  0  0  0  0  0  0  0  0  0
  -30.7931   -1.8934    0.0001 C   0  0  0  0  0  0  0  0  0  0  0  0
   35.0049    2.6648    0.0002 H   0  0  0  0  0  0  0  0  0  0  0  0
   37.5105    2.1855    0.0003 H   0  0  0  0  0  0  0  0  0  0  0  0
   38.2118   -0.2869    0.0003 H   0  0  0  0  0  0  0  0  0  0  0  0
   32.7975   -3.8456    0.0002 H   0  0  0  0  0  0  0  0  0  0  0  0
   30.2393   -3.8346    0.0001 H   0  0  0  0  0  0  0  0  0  0  0  0
   28.0919    2.6715    0.0001 H   0  0  0  0  0  0  0  0  0  0  0  0
   25.6186    2.2215    0.0000 H   0  0  0  0  0  0  0  0  0  0  0  0
   22.3474   -3.0011   -0.0001 H   0  0  0  0  0  0  0  0  0  0  0  0
   24.8195   -2.5469   -0.0000 H   0  0  0  0  0  0  0  0  0  0  0  0
   20.2113    3.5194    0.0000 H   0  0  0  0  0  0  0  0  0  0  0  0
   17.6568    3.5358    0.0000 H   0  0  0  0  0  0  0  0  0  0  0  0
   15.4380   -2.9565   -0.0001 H   0  0  0  0  0  0  0  0  0  0  0  0
   12.9727   -2.4714   -0.0001 H   0  0  0  0  0  0  0  0  0  0  0  0
    9.7756    2.7964   -0.0001 H   0  0  0  0  0  0  0  0  0  0  0  0
   12.2408    2.3106   -0.0001 H   0  0  0  0  0  0  0  0  0  0  0  0
    7.5573   -3.6965   -0.0001 H   0  0  0  0  0  0  0  0  0  0  0  0
    5.0031   -3.6804   -0.0002 H   0  0  0  0  0  0  0  0  0  0  0  0
    2.8673    2.8404   -0.0001 H   0  0  0  0  0  0  0  0  0  0  0  0
    0.3963    2.3863   -0.0001 H   0  0  0  0  0  0  0  0  0  0  0  0
   -2.8673   -2.8403   -0.0002 H   0  0  0  0  0  0  0  0  0  0  0  0
   -0.3963   -2.3863   -0.0002 H   0  0  0  0  0  0  0  0  0  0  0  0
   -5.0031    3.6805   -0.0000 H   0  0  0  0  0  0  0  0  0  0  0  0
   -7.5574    3.6966   -0.0000 H   0  0  0  0  0  0  0  0  0  0  0  0
   -9.7756   -2.7964   -0.0002 H   0  0  0  0  0  0  0  0  0  0  0  0
  -12.2408   -2.3106   -0.0002 H   0  0  0  0  0  0  0  0  0  0  0  0
  -15.4380    2.9565   -0.0000 H   0  0  0  0  0  0  0  0  0  0  0  0
  -12.9727    2.4715   -0.0001 H   0  0  0  0  0  0  0  0  0  0  0  0
  -17.6568   -3.5358   -0.0001 H   0  0  0  0  0  0  0  0  0  0  0  0
  -20.2113   -3.5194   -0.0000 H   0  0  0  0  0  0  0  0  0  0  0  0
  -22.3474    3.0011    0.0001 H   0  0  0  0  0  0  0  0  0  0  0  0
  -24.8195    2.5469    0.0001 H   0  0  0  0  0  0  0  0  0  0  0  0
  -28.0919   -2.6715    0.0001 H   0  0  0  0  0  0  0  0  0  0  0  0
  -25.6186   -2.2215    0.0000 H   0  0  0  0  0  0  0  0  0  0  0  0
  -30.2393    3.8346    0.0002 H   0  0  0  0  0  0  0  0  0  0  0  0
  -32.7975    3.8455    0.0002 H   0  0  0  0  0  0  0  0  0  0  0  0
  -35.0049   -2.6649    0.0002 H   0  0  0  0  0  0  0  0  0  0  0  0
  -37.5105   -2.1856    0.0003 H   0  0  0  0  0  0  0  0  0  0  0  0
  -38.2118    0.2868    0.0003 H   0  0  0  0  0  0  0  0  0  0  0  0
  1  2  1  0
  2  3  2  0
  3  4  1  0
  4  5  1  0
  5  6  1  0
  6  7  2  0
  7  8  1  0
  8  9  2  0
  9 10  1  0
 10 11  2  0
 11 12  1  0
 12 13  2  0
 13 14  1  0
 14 15  2  0
 15 16  1  0
 16 17  2  0
 17 18  1  0
 13 19  1  0
 19 20  2  0
 20 21  1  0
 21 22  1  0
 22 23  2  0
 24 25  1  0
 25 26  2  0
 26 27  1  0
 27 28  1  0
 28 29  1  0
 29 30  2  0
 30 31  1  0
 31 32  2  0
 32 33  1  0
 33 34  2  0
 34 35  1  0
 35 36  2  0
 36 37  1  0
 37 38  2  0
 38 39  1  0
 39 40  2  0
 40 41  1  0
 36 42  1  0
 42 43  2  0
 43 44  1  0
 44 45  1  0
 45 46  2  0
 47 48  1  0
 48 49  2  0
 49 50  1  0
 50 51  1  0
 51 52  1  0
 52 53  2  0
 53 54  1  0
 54 55  2  0
 55 56  1  0
 56 57  2  0
 57 58  1  0
 58 59  2  0
 59 60  1  0
 60 61  2  0
 61 62  1  0
 62 63  2  0
 63 64  1  0
 59 65  1  0
 65 66  2  0
 66 67  1  0
 67 68  1  0
 68 69  2  0
 70 71  1  0
 71 72  2  0
 72 73  1  0
 73 74  1  0
 74 75  1  0
 75 76  2  0
 76 77  1  0
 77 78  2  0
 78 79  1  0
 79 80  2  0
 80 81  1  0
 81 82  2  0
 82 83  1  0
 83 84  2  0
 84 85  1  0
 85 86  2  0
 86 87  1  0
 82 88  1  0
 88 89  2  0
 89 90  1  0
 90 91  1  0
 91 92  2  0
 93 94  1  0
 94 95  2  0
 95 96  1  0
 96 97  1  0
 97 98  1  0
 98 99  2  0
 99100  1  0
100101  2  0
101102  1  0
102103  2  0
103104  1  0
104105  2  0
105106  1  0
106107  2  0
107108  1  0
108109  2  0
109110  1  0
105111  1  0
111112  2  0
112113  1  0
113114  1  0
114115  2  0
116117  1  0
117118  2  0
118119  1  0
119120  1  0
120121  1  0
121122  2  0
122123  1  0
123124  2  0
124125  1  0
125126  2  0
126127  1  0
127128  2  0
128129  1  0
129130  2  0
130131  1  0
131132  2  0
132133  1  0
128134  1  0
134135  2  0
135136  1  0
136137  1  0
137138  2  0
  5  1  2  0
 23  6  1  0
 28 24  2  0
 46 29  1  0
 51 47  2  0
 69 52  1  0
 74 70  2  0
 92 75  1  0
 97 93  2  0
115 98  1  0
120116  2  0
138121  1  0
 12  7  1  0
 18 14  1  0
 23 19  1  0
 35 30  1  0
 41 37  1  0
 46 42  1  0
 58 53  1  0
 64 60  1  0
 69 65  1  0
 81 76  1  0
 87 83  1  0
 92 88  1  0
104 99  1  0
110106  1  0
115111  1  0
127122  1  0
133129  1  0
138134  1  0
 17 26  1  0
 40 49  1  0
 63 72  1  0
 86 95  1  0
109118  1  0
  1139  1  0
  2140  1  0
  3141  1  0
  9142  1  0
 10143  1  0
 15144  1  0
 16145  1  0
 24146  1  0
 25147  1  0
 32148  1  0
 33149  1  0
 38150  1  0
 39151  1  0
 47152  1  0
 48153  1  0
 55154  1  0
 56155  1  0
 61156  1  0
 62157  1  0
 70158  1  0
 71159  1  0
 78160  1  0
 79161  1  0
 84162  1  0
 85163  1  0
 93164  1  0
 94165  1  0
101166  1  0
102167  1  0
107168  1  0
108169  1  0
116170  1  0
117171  1  0
124172  1  0
125173  1  0
130174  1  0
131175  1  0
132176  1  0
M  END
>  <_StereochemDone>  (33) 
1

>  <File>  (33) 
C-DAD_Hexamer/C-TeSeTe6-UV.gjf

>  <System_Code>  (33) 
TeSeTe

>  <Unit_Type>  (33) 
Hexamer

>  <Family>  (33) 
chalcogendiazoloquinoxaline

>  <InChIKey>  (33) 
YXUOQAHBWDFGNG-UHFFFAOYSA-N

$$$$
C-TeTeTe6-UV
     RDKit          3D

176205  0  0  0  0  0  0  0  0999 V2000
  -35.3894    1.5167    0.0000 C   0  0  0  0  0  0  0  0  0  0  0  0
  -36.7885    1.2191    0.0001 C   0  0  0  0  0  0  0  0  0  0  0  0
  -37.1580   -0.1180    0.0002 C   0  0  0  0  0  0  0  0  0  0  0  0
  -35.5140   -1.4037    0.0002 Te  0  0  0  0  0  2  0  0  0  0  0  0
  -34.4743    0.4494    0.0001 C   0  0  0  0  0  0  0  0  0  0  0  0
  -33.0401    0.5363    0.0001 C   0  0  0  0  0  0  0  0  0  0  0  0
  -32.2442   -0.6596    0.0001 C   0  0  0  0  0  0  0  0  0  0  0  0
  -32.8958   -1.8695    0.0002 N   0  0  0  0  0  0  0  0  0  0  0  0
  -32.2035   -3.0191    0.0003 C   0  0  0  0  0  0  0  0  0  0  0  0
  -30.7906   -3.0105    0.0003 C   0  0  0  0  0  0  0  0  0  0  0  0
  -30.1242   -1.8399    0.0002 N   0  0  0  0  0  0  0  0  0  0  0  0
  -30.7988   -0.6510    0.0001 C   0  0  0  0  0  0  0  0  0  0  0  0
  -30.0129    0.5579    0.0000 C   0  0  0  0  0  0  0  0  0  0  0  0
  -28.6038    0.4668   -0.0000 C   0  0  0  0  0  0  0  0  0  0  0  0
  -27.6768    1.5643   -0.0001 C   0  0  0  0  0  0  0  0  0  0  0  0
  -26.3165    1.2958   -0.0001 C   0  0  0  0  0  0  0  0  0  0  0  0
  -25.8709   -0.0694    0.0000 C   0  0  0  0  0  0  0  0  0  0  0  0
  -27.5952   -1.3836    0.0001 Te  0  0  0  0  0  2  0  0  0  0  0  0
  -30.7792    1.8120   -0.0001 C   0  0  0  0  0  0  0  0  0  0  0  0
  -30.1748    3.0054   -0.0002 N   0  0  0  0  0  0  0  0  0  0  0  0
  -31.5634    4.4830   -0.0002 Te  0  0  0  0  0  2  0  0  0  0  0  0
  -32.9202    2.9842   -0.0001 N   0  0  0  0  0  0  0  0  0  0  0  0
  -32.2946    1.7939   -0.0000 C   0  0  0  0  0  0  0  0  0  0  0  0
  -22.7378   -2.1081    0.0001 C   0  0  0  0  0  0  0  0  0  0  0  0
  -24.0948   -1.8378    0.0001 C   0  0  0  0  0  0  0  0  0  0  0  0
  -24.5395   -0.4698    0.0000 C   0  0  0  0  0  0  0  0  0  0  0  0
  -22.8148    0.8460   -0.0000 Te  0  0  0  0  0  2  0  0  0  0  0  0
  -21.8061   -1.0083    0.0001 C   0  0  0  0  0  0  0  0  0  0  0  0
  -20.4045   -1.0994    0.0000 C   0  0  0  0  0  0  0  0  0  0  0  0
  -19.6251    0.1233   -0.0000 C   0  0  0  0  0  0  0  0  0  0  0  0
  -20.3014    1.3059   -0.0001 N   0  0  0  0  0  0  0  0  0  0  0  0
  -19.6304    2.4842   -0.0001 C   0  0  0  0  0  0  0  0  0  0  0  0
  -18.2306    2.4990   -0.0001 C   0  0  0  0  0  0  0  0  0  0  0  0
  -17.5346    1.3350   -0.0001 N   0  0  0  0  0  0  0  0  0  0  0  0
  -18.1859    0.1383   -0.0000 C   0  0  0  0  0  0  0  0  0  0  0  0
  -17.3806   -1.0671    0.0000 C   0  0  0  0  0  0  0  0  0  0  0  0
  -15.9822   -0.9450   -0.0000 C   0  0  0  0  0  0  0  0  0  0  0  0
  -15.0261   -2.0265    0.0000 C   0  0  0  0  0  0  0  0  0  0  0  0
  -13.6773   -1.7282    0.0000 C   0  0  0  0  0  0  0  0  0  0  0  0
  -13.2598   -0.3484   -0.0001 C   0  0  0  0  0  0  0  0  0  0  0  0
  -15.0156    0.9307   -0.0001 Te  0  0  0  0  0  2  0  0  0  0  0  0
  -18.1218   -2.3413    0.0001 C   0  0  0  0  0  0  0  0  0  0  0  0
  -17.4958   -3.5203    0.0001 N   0  0  0  0  0  0  0  0  0  0  0  0
  -18.8517   -5.0340    0.0002 Te  0  0  0  0  0  2  0  0  0  0  0  0
  -20.2376   -3.5490    0.0002 N   0  0  0  0  0  0  0  0  0  0  0  0
  -19.6362   -2.3569    0.0001 C   0  0  0  0  0  0  0  0  0  0  0  0
  -10.1763    1.7569   -0.0002 C   0  0  0  0  0  0  0  0  0  0  0  0
  -11.5246    1.4581   -0.0001 C   0  0  0  0  0  0  0  0  0  0  0  0
  -11.9416    0.0778   -0.0001 C   0  0  0  0  0  0  0  0  0  0  0  0
  -10.1850   -1.2010   -0.0001 Te  0  0  0  0  0  2  0  0  0  0  0  0
   -9.2193    0.6755   -0.0001 C   0  0  0  0  0  0  0  0  0  0  0  0
   -7.8219    0.7980   -0.0001 C   0  0  0  0  0  0  0  0  0  0  0  0
   -7.0164   -0.4084   -0.0000 C   0  0  0  0  0  0  0  0  0  0  0  0
   -7.6677   -1.6043    0.0000 N   0  0  0  0  0  0  0  0  0  0  0  0
   -6.9714   -2.7691    0.0001 C   0  0  0  0  0  0  0  0  0  0  0  0
   -5.5725   -2.7543    0.0001 C   0  0  0  0  0  0  0  0  0  0  0  0
   -4.9010   -1.5751    0.0000 N   0  0  0  0  0  0  0  0  0  0  0  0
   -5.5775   -0.3931   -0.0000 C   0  0  0  0  0  0  0  0  0  0  0  0
   -4.7981    0.8301   -0.0001 C   0  0  0  0  0  0  0  0  0  0  0  0
   -3.3982    0.7377   -0.0001 C   0  0  0  0  0  0  0  0  0  0  0  0
   -2.4647    1.8394   -0.0001 C   0  0  0  0  0  0  0  0  0  0  0  0
   -1.1103    1.5698   -0.0001 C   0  0  0  0  0  0  0  0  0  0  0  0
   -0.6635    0.1988   -0.0000 C   0  0  0  0  0  0  0  0  0  0  0  0
   -2.3921   -1.1174   -0.0000 Te  0  0  0  0  0  2  0  0  0  0  0  0
   -5.5662    2.0886   -0.0001 C   0  0  0  0  0  0  0  0  0  0  0  0
   -4.9653    3.2803   -0.0002 N   0  0  0  0  0  0  0  0  0  0  0  0
   -6.3519    4.7659   -0.0002 Te  0  0  0  0  0  2  0  0  0  0  0  0
   -7.7069    3.2512   -0.0002 N   0  0  0  0  0  0  0  0  0  0  0  0
   -7.0806    2.0727   -0.0001 C   0  0  0  0  0  0  0  0  0  0  0  0
    2.4647   -1.8394   -0.0000 C   0  0  0  0  0  0  0  0  0  0  0  0
    1.1103   -1.5697   -0.0000 C   0  0  0  0  0  0  0  0  0  0  0  0
    0.6635   -0.1988   -0.0000 C   0  0  0  0  0  0  0  0  0  0  0  0
    2.3921    1.1175   -0.0000 Te  0  0  0  0  0  2  0  0  0  0  0  0
    3.3982   -0.7376   -0.0000 C   0  0  0  0  0  0  0  0  0  0  0  0
    4.7981   -0.8301   -0.0000 C   0  0  0  0  0  0  0  0  0  0  0  0
    5.5775    0.3931   -0.0000 C   0  0  0  0  0  0  0  0  0  0  0  0
    4.9010    1.5752   -0.0000 N   0  0  0  0  0  0  0  0  0  0  0  0
    5.5726    2.7543    0.0000 C   0  0  0  0  0  0  0  0  0  0  0  0
    6.9714    2.7692    0.0000 C   0  0  0  0  0  0  0  0  0  0  0  0
    7.6677    1.6044    0.0000 N   0  0  0  0  0  0  0  0  0  0  0  0
    7.0164    0.4084   -0.0000 C   0  0  0  0  0  0  0  0  0  0  0  0
    7.8219   -0.7980   -0.0000 C   0  0  0  0  0  0  0  0  0  0  0  0
    9.2193   -0.6755   -0.0000 C   0  0  0  0  0  0  0  0  0  0  0  0
   10.1763   -1.7569   -0.0001 C   0  0  0  0  0  0  0  0  0  0  0  0
   11.5246   -1.4580   -0.0001 C   0  0  0  0  0  0  0  0  0  0  0  0
   11.9416   -0.0777   -0.0000 C   0  0  0  0  0  0  0  0  0  0  0  0
   10.1850    1.2011   -0.0000 Te  0  0  0  0  0  2  0  0  0  0  0  0
    7.0806   -2.0727   -0.0000 C   0  0  0  0  0  0  0  0  0  0  0  0
    7.7069   -3.2512   -0.0001 N   0  0  0  0  0  0  0  0  0  0  0  0
    6.3519   -4.7659   -0.0001 Te  0  0  0  0  0  2  0  0  0  0  0  0
    4.9653   -3.2802   -0.0000 N   0  0  0  0  0  0  0  0  0  0  0  0
    5.5662   -2.0886   -0.0000 C   0  0  0  0  0  0  0  0  0  0  0  0
   15.0261    2.0265    0.0000 C   0  0  0  0  0  0  0  0  0  0  0  0
   13.6773    1.7282    0.0000 C   0  0  0  0  0  0  0  0  0  0  0  0
   13.2598    0.3484   -0.0000 C   0  0  0  0  0  0  0  0  0  0  0  0
   15.0156   -0.9307   -0.0001 Te  0  0  0  0  0  2  0  0  0  0  0  0
   15.9822    0.9451    0.0000 C   0  0  0  0  0  0  0  0  0  0  0  0
   17.3806    1.0671    0.0000 C   0  0  0  0  0  0  0  0  0  0  0  0
   18.1859   -0.1383    0.0000 C   0  0  0  0  0  0  0  0  0  0  0  0
   17.5346   -1.3349   -0.0000 N   0  0  0  0  0  0  0  0  0  0  0  0
   18.2306   -2.4990   -0.0001 C   0  0  0  0  0  0  0  0  0  0  0  0
   19.6304   -2.4842   -0.0000 C   0  0  0  0  0  0  0  0  0  0  0  0
   20.3014   -1.3059   -0.0000 N   0  0  0  0  0  0  0  0  0  0  0  0
   19.6251   -0.1233    0.0000 C   0  0  0  0  0  0  0  0  0  0  0  0
   20.4045    1.0994    0.0000 C   0  0  0  0  0  0  0  0  0  0  0  0
   21.8061    1.0083    0.0000 C   0  0  0  0  0  0  0  0  0  0  0  0
   22.7378    2.1081    0.0001 C   0  0  0  0  0  0  0  0  0  0  0  0
   24.0948    1.8378    0.0001 C   0  0  0  0  0  0  0  0  0  0  0  0
   24.5395    0.4698    0.0000 C   0  0  0  0  0  0  0  0  0  0  0  0
   22.8148   -0.8460   -0.0000 Te  0  0  0  0  0  2  0  0  0  0  0  0
   19.6362    2.3569    0.0001 C   0  0  0  0  0  0  0  0  0  0  0  0
   20.2376    3.5490    0.0001 N   0  0  0  0  0  0  0  0  0  0  0  0
   18.8517    5.0340    0.0002 Te  0  0  0  0  0  2  0  0  0  0  0  0
   17.4958    3.5203    0.0001 N   0  0  0  0  0  0  0  0  0  0  0  0
   18.1218    2.3413    0.0001 C   0  0  0  0  0  0  0  0  0  0  0  0
   27.6768   -1.5643   -0.0001 C   0  0  0  0  0  0  0  0  0  0  0  0
   26.3165   -1.2958   -0.0001 C   0  0  0  0  0  0  0  0  0  0  0  0
   25.8709    0.0694    0.0000 C   0  0  0  0  0  0  0  0  0  0  0  0
   27.5952    1.3836    0.0001 Te  0  0  0  0  0  2  0  0  0  0  0  0
   28.6038   -0.4668    0.0000 C   0  0  0  0  0  0  0  0  0  0  0  0
   30.0129   -0.5579    0.0000 C   0  0  0  0  0  0  0  0  0  0  0  0
   30.7988    0.6510    0.0001 C   0  0  0  0  0  0  0  0  0  0  0  0
   30.1243    1.8398    0.0001 N   0  0  0  0  0  0  0  0  0  0  0  0
   30.7906    3.0104    0.0002 C   0  0  0  0  0  0  0  0  0  0  0  0
   32.2035    3.0191    0.0002 C   0  0  0  0  0  0  0  0  0  0  0  0
   32.8958    1.8695    0.0002 N   0  0  0  0  0  0  0  0  0  0  0  0
   32.2442    0.6595    0.0001 C   0  0  0  0  0  0  0  0  0  0  0  0
   33.0401   -0.5363    0.0000 C   0  0  0  0  0  0  0  0  0  0  0  0
   34.4743   -0.4495    0.0000 C   0  0  0  0  0  0  0  0  0  0  0  0
   35.3894   -1.5168    0.0000 C   0  0  0  0  0  0  0  0  0  0  0  0
   36.7885   -1.2191    0.0000 C   0  0  0  0  0  0  0  0  0  0  0  0
   37.1580    0.1180    0.0001 C   0  0  0  0  0  0  0  0  0  0  0  0
   35.5140    1.4037    0.0002 Te  0  0  0  0  0  2  0  0  0  0  0  0
   32.2946   -1.7940   -0.0000 C   0  0  0  0  0  0  0  0  0  0  0  0
   32.9202   -2.9843   -0.0001 N   0  0  0  0  0  0  0  0  0  0  0  0
   31.5634   -4.4830   -0.0002 Te  0  0  0  0  0  2  0  0  0  0  0  0
   30.1748   -3.0054   -0.0001 N   0  0  0  0  0  0  0  0  0  0  0  0
   30.7792   -1.8120   -0.0001 C   0  0  0  0  0  0  0  0  0  0  0  0
  -35.0178    2.5345   -0.0001 H   0  0  0  0  0  0  0  0  0  0  0  0
  -37.5212    2.0237    0.0000 H   0  0  0  0  0  0  0  0  0  0  0  0
  -38.1899   -0.4579    0.0002 H   0  0  0  0  0  0  0  0  0  0  0  0
  -32.7671   -3.9469    0.0004 H   0  0  0  0  0  0  0  0  0  0  0  0
  -30.2078   -3.9257    0.0004 H   0  0  0  0  0  0  0  0  0  0  0  0
  -28.0739    2.5725   -0.0002 H   0  0  0  0  0  0  0  0  0  0  0  0
  -25.5977    2.1152   -0.0001 H   0  0  0  0  0  0  0  0  0  0  0  0
  -22.3402   -3.1162    0.0002 H   0  0  0  0  0  0  0  0  0  0  0  0
  -24.8154   -2.6557    0.0002 H   0  0  0  0  0  0  0  0  0  0  0  0
  -20.2180    3.3961   -0.0002 H   0  0  0  0  0  0  0  0  0  0  0  0
  -17.6624    3.4231   -0.0002 H   0  0  0  0  0  0  0  0  0  0  0  0
  -15.4033   -3.0424    0.0001 H   0  0  0  0  0  0  0  0  0  0  0  0
  -12.9390   -2.5301    0.0000 H   0  0  0  0  0  0  0  0  0  0  0  0
   -9.7992    2.7729   -0.0002 H   0  0  0  0  0  0  0  0  0  0  0  0
  -12.2634    2.2597   -0.0002 H   0  0  0  0  0  0  0  0  0  0  0  0
   -7.5399   -3.6930    0.0001 H   0  0  0  0  0  0  0  0  0  0  0  0
   -4.9845   -3.6659    0.0001 H   0  0  0  0  0  0  0  0  0  0  0  0
   -2.8635    2.8470   -0.0001 H   0  0  0  0  0  0  0  0  0  0  0  0
   -0.3892    2.3872   -0.0001 H   0  0  0  0  0  0  0  0  0  0  0  0
    2.8635   -2.8470   -0.0000 H   0  0  0  0  0  0  0  0  0  0  0  0
    0.3892   -2.3872   -0.0000 H   0  0  0  0  0  0  0  0  0  0  0  0
    4.9845    3.6659    0.0000 H   0  0  0  0  0  0  0  0  0  0  0  0
    7.5399    3.6930    0.0000 H   0  0  0  0  0  0  0  0  0  0  0  0
    9.7992   -2.7729   -0.0001 H   0  0  0  0  0  0  0  0  0  0  0  0
   12.2634   -2.2596   -0.0001 H   0  0  0  0  0  0  0  0  0  0  0  0
   15.4033    3.0425    0.0001 H   0  0  0  0  0  0  0  0  0  0  0  0
   12.9390    2.5301    0.0000 H   0  0  0  0  0  0  0  0  0  0  0  0
   17.6624   -3.4231   -0.0001 H   0  0  0  0  0  0  0  0  0  0  0  0
   20.2180   -3.3961   -0.0001 H   0  0  0  0  0  0  0  0  0  0  0  0
   22.3402    3.1162    0.0001 H   0  0  0  0  0  0  0  0  0  0  0  0
   24.8154    2.6557    0.0001 H   0  0  0  0  0  0  0  0  0  0  0  0
   28.0739   -2.5725   -0.0001 H   0  0  0  0  0  0  0  0  0  0  0  0
   25.5977   -2.1152   -0.0001 H   0  0  0  0  0  0  0  0  0  0  0  0
   30.2078    3.9257    0.0002 H   0  0  0  0  0  0  0  0  0  0  0  0
   32.7671    3.9469    0.0003 H   0  0  0  0  0  0  0  0  0  0  0  0
   35.0177   -2.5346   -0.0001 H   0  0  0  0  0  0  0  0  0  0  0  0
   37.5212   -2.0237   -0.0000 H   0  0  0  0  0  0  0  0  0  0  0  0
   38.1899    0.4579    0.0001 H   0  0  0  0  0  0  0  0  0  0  0  0
  1  2  1  0
  2  3  2  0
  3  4  1  0
  4  5  1  0
  5  6  1  0
  6  7  2  0
  7  8  1  0
  8  9  2  0
  9 10  1  0
 10 11  2  0
 11 12  1  0
 12 13  2  0
 13 14  1  0
 14 15  2  0
 15 16  1  0
 16 17  2  0
 17 18  1  0
 13 19  1  0
 19 20  2  0
 20 21  1  0
 21 22  1  0
 22 23  2  0
 24 25  1  0
 25 26  2  0
 26 27  1  0
 27 28  1  0
 28 29  1  0
 29 30  2  0
 30 31  1  0
 31 32  2  0
 32 33  1  0
 33 34  2  0
 34 35  1  0
 35 36  2  0
 36 37  1  0
 37 38  2  0
 38 39  1  0
 39 40  2  0
 40 41  1  0
 36 42  1  0
 42 43  2  0
 43 44  1  0
 44 45  1  0
 45 46  2  0
 47 48  1  0
 48 49  2  0
 49 50  1  0
 50 51  1  0
 51 52  1  0
 52 53  2  0
 53 54  1  0
 54 55  2  0
 55 56  1  0
 56 57  2  0
 57 58  1  0
 58 59  2  0
 59 60  1  0
 60 61  2  0
 61 62  1  0
 62 63  2  0
 63 64  1  0
 59 65  1  0
 65 66  2  0
 66 67  1  0
 67 68  1  0
 68 69  2  0
 70 71  1  0
 71 72  2  0
 72 73  1  0
 73 74  1  0
 74 75  1  0
 75 76  2  0
 76 77  1  0
 77 78  2  0
 78 79  1  0
 79 80  2  0
 80 81  1  0
 81 82  2  0
 82 83  1  0
 83 84  2  0
 84 85  1  0
 85 86  2  0
 86 87  1  0
 82 88  1  0
 88 89  2  0
 89 90  1  0
 90 91  1  0
 91 92  2  0
 93 94  1  0
 94 95  2  0
 95 96  1  0
 96 97  1  0
 97 98  1  0
 98 99  2  0
 99100  1  0
100101  2  0
101102  1  0
102103  2  0
103104  1  0
104105  2  0
105106  1  0
106107  2  0
107108  1  0
108109  2  0
109110  1  0
105111  1  0
111112  2  0
112113  1  0
113114  1  0
114115  2  0
116117  1  0
117118  2  0
118119  1  0
119120  1  0
120121  1  0
121122  2  0
122123  1  0
123124  2  0
124125  1  0
125126  2  0
126127  1  0
127128  2  0
128129  1  0
129130  2  0
130131  1  0
131132  2  0
132133  1  0
128134  1  0
134135  2  0
135136  1  0
136137  1  0
137138  2  0
  5  1  2  0
 23  6  1  0
 28 24  2  0
 46 29  1  0
 51 47  2  0
 69 52  1  0
 74 70  2  0
 92 75  1  0
 97 93  2  0
115 98  1  0
120116  2  0
138121  1  0
 12  7  1  0
 18 14  1  0
 23 19  1  0
 35 30  1  0
 41 37  1  0
 46 42  1  0
 58 53  1  0
 64 60  1  0
 69 65  1  0
 81 76  1  0
 87 83  1  0
 92 88  1  0
104 99  1  0
110106  1  0
115111  1  0
127122  1  0
133129  1  0
138134  1  0
 17 26  1  0
 40 49  1  0
 63 72  1  0
 86 95  1  0
109118  1  0
  1139  1  0
  2140  1  0
  3141  1  0
  9142  1  0
 10143  1  0
 15144  1  0
 16145  1  0
 24146  1  0
 25147  1  0
 32148  1  0
 33149  1  0
 38150  1  0
 39151  1  0
 47152  1  0
 48153  1  0
 55154  1  0
 56155  1  0
 61156  1  0
 62157  1  0
 70158  1  0
 71159  1  0
 78160  1  0
 79161  1  0
 84162  1  0
 85163  1  0
 93164  1  0
 94165  1  0
101166  1  0
102167  1  0
107168  1  0
108169  1  0
116170  1  0
117171  1  0
124172  1  0
125173  1  0
130174  1  0
131175  1  0
132176  1  0
M  END
>  <_StereochemDone>  (34) 
1

>  <File>  (34) 
C-DAD_Hexamer/C-TeTeTe6-UV.gjf

>  <System_Code>  (34) 
TeTeTe

>  <Unit_Type>  (34) 
Hexamer

>  <Family>  (34) 
chalcogendiazoloquinoxaline

>  <InChIKey>  (34) 
RPXRFUOOBVVNRE-UHFFFAOYSA-N

$$$$
C-OOO1c-UV
     RDKit          3D

 31 35  0  0  0  0  0  0  0  0999 V2000
    3.9490    0.9181   -0.0000 C   0  0  0  0  0  0  0  0  0  0  0  0
    5.2154    0.2442    0.0001 C   0  0  0  0  0  0  0  0  0  0  0  0
    4.9480   -1.1107    0.0003 C   0  0  0  0  0  0  0  0  0  0  0  0
    3.5784   -1.3224    0.0003 O   0  0  0  0  0  0  0  0  0  0  0  0
    2.9519   -0.0581    0.0001 C   0  0  0  0  0  0  0  0  0  0  0  0
    1.5055   -0.0478   -0.0000 C   0  0  0  0  0  0  0  0  0  0  0  0
    0.7345    1.1472    0.0001 C   0  0  0  0  0  0  0  0  0  0  0  0
    1.4130    2.3658    0.0004 N   0  0  0  0  0  0  0  0  0  0  0  0
    0.7200    3.4918    0.0006 C   0  0  0  0  0  0  0  0  0  0  0  0
   -0.7201    3.4918    0.0004 C   0  0  0  0  0  0  0  0  0  0  0  0
   -1.4130    2.3658    0.0002 N   0  0  0  0  0  0  0  0  0  0  0  0
   -0.7345    1.1472    0.0000 C   0  0  0  0  0  0  0  0  0  0  0  0
   -1.5055   -0.0478   -0.0002 C   0  0  0  0  0  0  0  0  0  0  0  0
   -2.9519   -0.0581   -0.0001 C   0  0  0  0  0  0  0  0  0  0  0  0
   -3.9490    0.9181    0.0001 C   0  0  0  0  0  0  0  0  0  0  0  0
   -5.2154    0.2442    0.0002 C   0  0  0  0  0  0  0  0  0  0  0  0
   -4.9480   -1.1107    0.0002 C   0  0  0  0  0  0  0  0  0  0  0  0
   -3.5784   -1.3224   -0.0000 O   0  0  0  0  0  0  0  0  0  0  0  0
   -0.7306   -1.2581   -0.0004 C   0  0  0  0  0  0  0  0  0  0  0  0
   -1.1810   -2.5383   -0.0007 N   0  0  0  0  0  0  0  0  0  0  0  0
    0.0000   -3.3212   -0.0008 O   0  0  0  0  0  0  0  0  0  0  0  0
    1.1810   -2.5383   -0.0006 N   0  0  0  0  0  0  0  0  0  0  0  0
    0.7306   -1.2581   -0.0003 C   0  0  0  0  0  0  0  0  0  0  0  0
    3.7647    1.9778   -0.0001 H   0  0  0  0  0  0  0  0  0  0  0  0
    6.1928    0.7033    0.0000 H   0  0  0  0  0  0  0  0  0  0  0  0
    5.5615   -1.9974    0.0004 H   0  0  0  0  0  0  0  0  0  0  0  0
    1.2728    4.4277    0.0009 H   0  0  0  0  0  0  0  0  0  0  0  0
   -1.2729    4.4277    0.0006 H   0  0  0  0  0  0  0  0  0  0  0  0
   -3.7646    1.9777    0.0001 H   0  0  0  0  0  0  0  0  0  0  0  0
   -6.1928    0.7033    0.0004 H   0  0  0  0  0  0  0  0  0  0  0  0
   -5.5613   -1.9976    0.0003 H   0  0  0  0  0  0  0  0  0  0  0  0
  1  2  1  0
  2  3  2  0
  3  4  1  0
  4  5  1  0
  5  6  1  0
  6  7  2  0
  7  8  1  0
  8  9  2  0
  9 10  1  0
 10 11  2  0
 11 12  1  0
 12 13  2  0
 13 14  1  0
 14 15  2  0
 15 16  1  0
 16 17  2  0
 17 18  1  0
 13 19  1  0
 19 20  2  0
 20 21  1  0
 21 22  1  0
 22 23  2  0
  5  1  2  0
 23  6  1  0
 12  7  1  0
 18 14  1  0
 23 19  1  0
  1 24  1  0
  2 25  1  0
  3 26  1  0
  9 27  1  0
 10 28  1  0
 15 29  1  0
 16 30  1  0
 17 31  1  0
M  END
>  <File>  (35) 
C-DAD_Monomer/C-OOO1c-UV.gjf

>  <System_Code>  (35) 
OOO

>  <Unit_Type>  (35) 
Monomer

>  <Family>  (35) 
chalcogendiazoloquinoxaline

>  <InChIKey>  (35) 
PMETURAFPUPOJB-UHFFFAOYSA-N

$$$$
C-OSO1b-UV
     RDKit          3D

 31 35  0  0  0  0  0  0  0  0999 V2000
    3.8874    1.2213   -0.1124 C   0  0  0  0  0  0  0  0  0  0  0  0
    5.1838    0.6583    0.1342 C   0  0  0  0  0  0  0  0  0  0  0  0
    4.9856   -0.6686    0.4606 C   0  0  0  0  0  0  0  0  0  0  0  0
    3.6335   -0.9693    0.4244 O   0  0  0  0  0  0  0  0  0  0  0  0
    2.9442    0.2090    0.0640 C   0  0  0  0  0  0  0  0  0  0  0  0
    1.4981    0.1406   -0.0354 C   0  0  0  0  0  0  0  0  0  0  0  0
    0.6796    1.3000   -0.0848 C   0  0  0  0  0  0  0  0  0  0  0  0
    1.3032    2.5499   -0.0753 N   0  0  0  0  0  0  0  0  0  0  0  0
    0.5627    3.6400   -0.1730 C   0  0  0  0  0  0  0  0  0  0  0  0
   -0.8703    3.5706   -0.3215 C   0  0  0  0  0  0  0  0  0  0  0  0
   -1.5151    2.4183   -0.2933 N   0  0  0  0  0  0  0  0  0  0  0  0
   -0.7869    1.2387   -0.1316 C   0  0  0  0  0  0  0  0  0  0  0  0
   -1.4984    0.0154   -0.0528 C   0  0  0  0  0  0  0  0  0  0  0  0
   -2.9414   -0.0943    0.0478 C   0  0  0  0  0  0  0  0  0  0  0  0
   -3.8200   -1.1446   -0.2137 C   0  0  0  0  0  0  0  0  0  0  0  0
   -5.1443   -0.6929    0.1045 C   0  0  0  0  0  0  0  0  0  0  0  0
   -5.0209    0.6034    0.5633 C   0  0  0  0  0  0  0  0  0  0  0  0
   -3.6905    0.9940    0.5392 O   0  0  0  0  0  0  0  0  0  0  0  0
   -0.6895   -1.1770   -0.0873 C   0  0  0  0  0  0  0  0  0  0  0  0
   -1.2057   -2.4267   -0.1403 N   0  0  0  0  0  0  0  0  0  0  0  0
    0.1420   -3.5539   -0.2177 S   0  0  0  0  0  0  0  0  0  0  0  0
    1.3995   -2.3282   -0.1745 N   0  0  0  0  0  0  0  0  0  0  0  0
    0.7940   -1.1194   -0.0954 C   0  0  0  0  0  0  0  0  0  0  0  0
    3.6503    2.2365   -0.3772 H   0  0  0  0  0  0  0  0  0  0  0  0
    6.1332    1.1698    0.0784 H   0  0  0  0  0  0  0  0  0  0  0  0
    5.6417   -1.4821    0.7262 H   0  0  0  0  0  0  0  0  0  0  0  0
    1.0710    4.6010   -0.1521 H   0  0  0  0  0  0  0  0  0  0  0  0
   -1.4567    4.4736   -0.4719 H   0  0  0  0  0  0  0  0  0  0  0  0
   -3.5281   -2.1151   -0.5785 H   0  0  0  0  0  0  0  0  0  0  0  0
   -6.0612   -1.2555    0.0101 H   0  0  0  0  0  0  0  0  0  0  0  0
   -5.7210    1.3405    0.9230 H   0  0  0  0  0  0  0  0  0  0  0  0
  1  2  1  0
  2  3  2  0
  3  4  1  0
  4  5  1  0
  5  6  1  0
  6  7  2  0
  7  8  1  0
  8  9  2  0
  9 10  1  0
 10 11  2  0
 11 12  1  0
 12 13  2  0
 13 14  1  0
 14 15  2  0
 15 16  1  0
 16 17  2  0
 17 18  1  0
 13 19  1  0
 19 20  2  0
 20 21  1  0
 21 22  1  0
 22 23  2  0
  5  1  2  0
 23  6  1  0
 12  7  1  0
 18 14  1  0
 23 19  1  0
  1 24  1  0
  2 25  1  0
  3 26  1  0
  9 27  1  0
 10 28  1  0
 15 29  1  0
 16 30  1  0
 17 31  1  0
M  END
>  <File>  (36) 
C-DAD_Monomer/C-OSO1b-UV.gjf

>  <System_Code>  (36) 
OSO

>  <Unit_Type>  (36) 
Monomer

>  <Family>  (36) 
chalcogendiazoloquinoxaline

>  <InChIKey>  (36) 
BUSUYFNNZFJEHU-UHFFFAOYSA-N

$$$$
C-OSeO1b-UV
     RDKit          3D

 31 35  0  0  0  0  0  0  0  0999 V2000
   -3.8371    1.6396   -0.2072 C   0  0  0  0  0  0  0  0  0  0  0  0
   -5.1410    1.1366    0.1207 C   0  0  0  0  0  0  0  0  0  0  0  0
   -4.9622   -0.1430    0.6067 C   0  0  0  0  0  0  0  0  0  0  0  0
   -3.6161   -0.4732    0.5914 O   0  0  0  0  0  0  0  0  0  0  0  0
   -2.9117    0.6386    0.0802 C   0  0  0  0  0  0  0  0  0  0  0  0
   -1.4668    0.5349   -0.0277 C   0  0  0  0  0  0  0  0  0  0  0  0
   -0.6285    1.6756   -0.1016 C   0  0  0  0  0  0  0  0  0  0  0  0
   -1.2257    2.9391   -0.1112 N   0  0  0  0  0  0  0  0  0  0  0  0
   -0.4610    4.0095   -0.2358 C   0  0  0  0  0  0  0  0  0  0  0  0
    0.9695    3.9044   -0.3965 C   0  0  0  0  0  0  0  0  0  0  0  0
    1.5898    2.7398   -0.3457 N   0  0  0  0  0  0  0  0  0  0  0  0
    0.8357    1.5806   -0.1496 C   0  0  0  0  0  0  0  0  0  0  0  0
    1.5179    0.3451   -0.0393 C   0  0  0  0  0  0  0  0  0  0  0  0
    2.9596    0.2195    0.0754 C   0  0  0  0  0  0  0  0  0  0  0  0
    3.8383   -0.8250   -0.2023 C   0  0  0  0  0  0  0  0  0  0  0  0
    5.1600   -0.3863    0.1463 C   0  0  0  0  0  0  0  0  0  0  0  0
    5.0338    0.8968    0.6397 C   0  0  0  0  0  0  0  0  0  0  0  0
    3.7048    1.2916    0.6083 O   0  0  0  0  0  0  0  0  0  0  0  0
    0.6914   -0.8393   -0.0573 C   0  0  0  0  0  0  0  0  0  0  0  0
    1.2095   -2.0875   -0.0914 N   0  0  0  0  0  0  0  0  0  0  0  0
   -0.2054   -3.2969   -0.1724 Se  0  0  0  0  0  2  0  0  0  0  0  0
   -1.4608   -1.9232   -0.1493 N   0  0  0  0  0  0  0  0  0  0  0  0
   -0.7976   -0.7471   -0.0730 C   0  0  0  0  0  0  0  0  0  0  0  0
   -3.5872    2.6118   -0.5943 H   0  0  0  0  0  0  0  0  0  0  0  0
   -6.0818    1.6559    0.0127 H   0  0  0  0  0  0  0  0  0  0  0  0
   -5.6296   -0.9038    0.9792 H   0  0  0  0  0  0  0  0  0  0  0  0
   -0.9468    4.9823   -0.2276 H   0  0  0  0  0  0  0  0  0  0  0  0
    1.5733    4.7907   -0.5753 H   0  0  0  0  0  0  0  0  0  0  0  0
    3.5482   -1.7840   -0.5978 H   0  0  0  0  0  0  0  0  0  0  0  0
    6.0768   -0.9486    0.0486 H   0  0  0  0  0  0  0  0  0  0  0  0
    5.7309    1.6211    1.0300 H   0  0  0  0  0  0  0  0  0  0  0  0
  1  2  1  0
  2  3  2  0
  3  4  1  0
  4  5  1  0
  5  6  1  0
  6  7  2  0
  7  8  1  0
  8  9  2  0
  9 10  1  0
 10 11  2  0
 11 12  1  0
 12 13  2  0
 13 14  1  0
 14 15  2  0
 15 16  1  0
 16 17  2  0
 17 18  1  0
 13 19  1  0
 19 20  2  0
 20 21  1  0
 21 22  1  0
 22 23  2  0
  5  1  2  0
 23  6  1  0
 12  7  1  0
 18 14  1  0
 23 19  1  0
  1 24  1  0
  2 25  1  0
  3 26  1  0
  9 27  1  0
 10 28  1  0
 15 29  1  0
 16 30  1  0
 17 31  1  0
M  END
>  <File>  (37) 
C-DAD_Monomer/C-OSeO1b-UV.gjf

>  <System_Code>  (37) 
OSeO

>  <Unit_Type>  (37) 
Monomer

>  <Family>  (37) 
chalcogendiazoloquinoxaline

>  <InChIKey>  (37) 
JEDGZVCGPZEJPZ-UHFFFAOYSA-N

$$$$
C-OTeO1b-UV
     RDKit          3D

 31 35  0  0  0  0  0  0  0  0999 V2000
   -3.6882    2.1707   -0.2749 C   0  0  0  0  0  0  0  0  0  0  0  0
   -5.0118    1.7866    0.1294 C   0  0  0  0  0  0  0  0  0  0  0  0
   -4.8968    0.5563    0.7444 C   0  0  0  0  0  0  0  0  0  0  0  0
   -3.5735    0.1428    0.7366 O   0  0  0  0  0  0  0  0  0  0  0  0
   -2.8186    1.1495    0.0960 C   0  0  0  0  0  0  0  0  0  0  0  0
   -1.3832    0.9516   -0.0275 C   0  0  0  0  0  0  0  0  0  0  0  0
   -0.4812    2.0365   -0.1262 C   0  0  0  0  0  0  0  0  0  0  0  0
   -0.9989    3.3355   -0.1530 N   0  0  0  0  0  0  0  0  0  0  0  0
   -0.1687    4.3517   -0.3050 C   0  0  0  0  0  0  0  0  0  0  0  0
    1.2514    4.1524   -0.4790 C   0  0  0  0  0  0  0  0  0  0  0  0
    1.7984    2.9530   -0.4070 N   0  0  0  0  0  0  0  0  0  0  0  0
    0.9737    1.8480   -0.1770 C   0  0  0  0  0  0  0  0  0  0  0  0
    1.5752    0.5767   -0.0350 C   0  0  0  0  0  0  0  0  0  0  0  0
    3.0080    0.3802    0.1013 C   0  0  0  0  0  0  0  0  0  0  0  0
    3.8477   -0.6943   -0.1780 C   0  0  0  0  0  0  0  0  0  0  0  0
    5.1801   -0.3170    0.2032 C   0  0  0  0  0  0  0  0  0  0  0  0
    5.0975    0.9612    0.7180 C   0  0  0  0  0  0  0  0  0  0  0  0
    3.7868    1.4111    0.6687 O   0  0  0  0  0  0  0  0  0  0  0  0
    0.6861   -0.5677   -0.0406 C   0  0  0  0  0  0  0  0  0  0  0  0
    1.1607   -1.8305   -0.0606 N   0  0  0  0  0  0  0  0  0  0  0  0
   -0.3924   -3.1115   -0.1478 Te  0  0  0  0  0  2  0  0  0  0  0  0
   -1.5764   -1.4831   -0.1443 N   0  0  0  0  0  0  0  0  0  0  0  0
   -0.8058   -0.3789   -0.0639 C   0  0  0  0  0  0  0  0  0  0  0  0
   -3.3918    3.0815   -0.7655 H   0  0  0  0  0  0  0  0  0  0  0  0
   -5.9224    2.3492   -0.0143 H   0  0  0  0  0  0  0  0  0  0  0  0
   -5.5985   -0.1173    1.2100 H   0  0  0  0  0  0  0  0  0  0  0  0
   -0.5909    5.3539   -0.3097 H   0  0  0  0  0  0  0  0  0  0  0  0
    1.9069    4.9948   -0.6863 H   0  0  0  0  0  0  0  0  0  0  0  0
    3.5239   -1.6326   -0.5952 H   0  0  0  0  0  0  0  0  0  0  0  0
    6.0749   -0.9149    0.1122 H   0  0  0  0  0  0  0  0  0  0  0  0
    5.8162    1.6486    1.1350 H   0  0  0  0  0  0  0  0  0  0  0  0
  1  2  1  0
  2  3  2  0
  3  4  1  0
  4  5  1  0
  5  6  1  0
  6  7  2  0
  7  8  1  0
  8  9  2  0
  9 10  1  0
 10 11  2  0
 11 12  1  0
 12 13  2  0
 13 14  1  0
 14 15  2  0
 15 16  1  0
 16 17  2  0
 17 18  1  0
 13 19  1  0
 19 20  2  0
 20 21  1  0
 21 22  1  0
 22 23  2  0
  5  1  2  0
 23  6  1  0
 12  7  1  0
 18 14  1  0
 23 19  1  0
  1 24  1  0
  2 25  1  0
  3 26  1  0
  9 27  1  0
 10 28  1  0
 15 29  1  0
 16 30  1  0
 17 31  1  0
M  END
>  <File>  (38) 
C-DAD_Monomer/C-OTeO1b-UV.gjf

>  <System_Code>  (38) 
OTeO

>  <Unit_Type>  (38) 
Monomer

>  <Family>  (38) 
chalcogendiazoloquinoxaline

>  <InChIKey>  (38) 
JKHPJHCFZGFNFA-UHFFFAOYSA-N

$$$$
C-SOS1a-UV
     RDKit          3D

 31 35  0  0  0  0  0  0  0  0999 V2000
   -3.7734   -1.4356    0.0005 C   0  0  0  0  0  0  0  0  0  0  0  0
   -5.1806   -1.1867    0.0005 C   0  0  0  0  0  0  0  0  0  0  0  0
   -5.4941    0.1573    0.0001 C   0  0  0  0  0  0  0  0  0  0  0  0
   -4.0415    1.2002   -0.0002 S   0  0  0  0  0  0  0  0  0  0  0  0
   -2.9730   -0.2885    0.0001 C   0  0  0  0  0  0  0  0  0  0  0  0
   -1.5221   -0.2490   -0.0000 C   0  0  0  0  0  0  0  0  0  0  0  0
   -0.7337    0.9337   -0.0000 C   0  0  0  0  0  0  0  0  0  0  0  0
   -1.4058    2.1508   -0.0000 N   0  0  0  0  0  0  0  0  0  0  0  0
   -0.7214    3.2805    0.0000 C   0  0  0  0  0  0  0  0  0  0  0  0
    0.7213    3.2805    0.0001 C   0  0  0  0  0  0  0  0  0  0  0  0
    1.4058    2.1508    0.0000 N   0  0  0  0  0  0  0  0  0  0  0  0
    0.7337    0.9338   -0.0000 C   0  0  0  0  0  0  0  0  0  0  0  0
    1.5222   -0.2489   -0.0001 C   0  0  0  0  0  0  0  0  0  0  0  0
    2.9730   -0.2884   -0.0001 C   0  0  0  0  0  0  0  0  0  0  0  0
    3.7734   -1.4355   -0.0003 C   0  0  0  0  0  0  0  0  0  0  0  0
    5.1805   -1.1867   -0.0002 C   0  0  0  0  0  0  0  0  0  0  0  0
    5.4941    0.1573    0.0001 C   0  0  0  0  0  0  0  0  0  0  0  0
    4.0415    1.2002    0.0003 S   0  0  0  0  0  0  0  0  0  0  0  0
    0.7310   -1.4540   -0.0002 C   0  0  0  0  0  0  0  0  0  0  0  0
    1.1724   -2.7324   -0.0003 N   0  0  0  0  0  0  0  0  0  0  0  0
    0.0001   -3.5244   -0.0003 O   0  0  0  0  0  0  0  0  0  0  0  0
   -1.1723   -2.7324   -0.0002 N   0  0  0  0  0  0  0  0  0  0  0  0
   -0.7310   -1.4540   -0.0001 C   0  0  0  0  0  0  0  0  0  0  0  0
   -3.3529   -2.4321    0.0008 H   0  0  0  0  0  0  0  0  0  0  0  0
   -5.9222   -1.9777    0.0009 H   0  0  0  0  0  0  0  0  0  0  0  0
   -6.4738    0.6158   -0.0000 H   0  0  0  0  0  0  0  0  0  0  0  0
   -1.2793    4.2128    0.0000 H   0  0  0  0  0  0  0  0  0  0  0  0
    1.2792    4.2129    0.0001 H   0  0  0  0  0  0  0  0  0  0  0  0
    3.3529   -2.4320   -0.0005 H   0  0  0  0  0  0  0  0  0  0  0  0
    5.9221   -1.9777   -0.0003 H   0  0  0  0  0  0  0  0  0  0  0  0
    6.4738    0.6158    0.0002 H   0  0  0  0  0  0  0  0  0  0  0  0
  1  2  1  0
  2  3  2  0
  3  4  1  0
  4  5  1  0
  5  6  1  0
  6  7  2  0
  7  8  1  0
  8  9  2  0
  9 10  1  0
 10 11  2  0
 11 12  1  0
 12 13  2  0
 13 14  1  0
 14 15  2  0
 15 16  1  0
 16 17  2  0
 17 18  1  0
 13 19  1  0
 19 20  2  0
 20 21  1  0
 21 22  1  0
 22 23  2  0
  5  1  2  0
 23  6  1  0
 12  7  1  0
 18 14  1  0
 23 19  1  0
  1 24  1  0
  2 25  1  0
  3 26  1  0
  9 27  1  0
 10 28  1  0
 15 29  1  0
 16 30  1  0
 17 31  1  0
M  END
>  <File>  (39) 
C-DAD_Monomer/C-SOS1a-UV.gjf

>  <System_Code>  (39) 
SOS

>  <Unit_Type>  (39) 
Monomer

>  <Family>  (39) 
chalcogendiazoloquinoxaline

>  <InChIKey>  (39) 
DIMSIBRCDZGHSG-UHFFFAOYSA-N

$$$$
C-SSS1a-UV
     RDKit          3D

 31 35  0  0  0  0  0  0  0  0999 V2000
    3.8124    1.2235   -0.0017 C   0  0  0  0  0  0  0  0  0  0  0  0
    5.2132    0.9388   -0.0012 C   0  0  0  0  0  0  0  0  0  0  0  0
    5.4929   -0.4121    0.0004 C   0  0  0  0  0  0  0  0  0  0  0  0
    4.0138   -1.4173    0.0014 S   0  0  0  0  0  0  0  0  0  0  0  0
    2.9779    0.1012   -0.0005 C   0  0  0  0  0  0  0  0  0  0  0  0
    1.5222    0.0911   -0.0003 C   0  0  0  0  0  0  0  0  0  0  0  0
    0.7316   -1.0884   -0.0001 C   0  0  0  0  0  0  0  0  0  0  0  0
    1.4013   -2.3065    0.0002 N   0  0  0  0  0  0  0  0  0  0  0  0
    0.7210   -3.4379    0.0003 C   0  0  0  0  0  0  0  0  0  0  0  0
   -0.7210   -3.4379    0.0001 C   0  0  0  0  0  0  0  0  0  0  0  0
   -1.4013   -2.3065   -0.0001 N   0  0  0  0  0  0  0  0  0  0  0  0
   -0.7316   -1.0883   -0.0001 C   0  0  0  0  0  0  0  0  0  0  0  0
   -1.5222    0.0911    0.0001 C   0  0  0  0  0  0  0  0  0  0  0  0
   -2.9779    0.1012    0.0003 C   0  0  0  0  0  0  0  0  0  0  0  0
   -3.8124    1.2235    0.0016 C   0  0  0  0  0  0  0  0  0  0  0  0
   -5.2132    0.9388    0.0013 C   0  0  0  0  0  0  0  0  0  0  0  0
   -5.4929   -0.4121   -0.0004 C   0  0  0  0  0  0  0  0  0  0  0  0
   -4.0138   -1.4173   -0.0015 S   0  0  0  0  0  0  0  0  0  0  0  0
   -0.7462    1.3170    0.0001 C   0  0  0  0  0  0  0  0  0  0  0  0
   -1.2942    2.5524    0.0004 N   0  0  0  0  0  0  0  0  0  0  0  0
    0.0000    3.7355    0.0002 S   0  0  0  0  0  0  0  0  0  0  0  0
    1.2942    2.5524   -0.0003 N   0  0  0  0  0  0  0  0  0  0  0  0
    0.7462    1.3170   -0.0003 C   0  0  0  0  0  0  0  0  0  0  0  0
    3.4080    2.2253   -0.0028 H   0  0  0  0  0  0  0  0  0  0  0  0
    5.9739    1.7117   -0.0021 H   0  0  0  0  0  0  0  0  0  0  0  0
    6.4608   -0.8954    0.0011 H   0  0  0  0  0  0  0  0  0  0  0  0
    1.2812   -4.3690    0.0006 H   0  0  0  0  0  0  0  0  0  0  0  0
   -1.2812   -4.3690    0.0000 H   0  0  0  0  0  0  0  0  0  0  0  0
   -3.4080    2.2253    0.0027 H   0  0  0  0  0  0  0  0  0  0  0  0
   -5.9739    1.7117    0.0024 H   0  0  0  0  0  0  0  0  0  0  0  0
   -6.4608   -0.8954   -0.0010 H   0  0  0  0  0  0  0  0  0  0  0  0
  1  2  1  0
  2  3  2  0
  3  4  1  0
  4  5  1  0
  5  6  1  0
  6  7  2  0
  7  8  1  0
  8  9  2  0
  9 10  1  0
 10 11  2  0
 11 12  1  0
 12 13  2  0
 13 14  1  0
 14 15  2  0
 15 16  1  0
 16 17  2  0
 17 18  1  0
 13 19  1  0
 19 20  2  0
 20 21  1  0
 21 22  1  0
 22 23  2  0
  5  1  2  0
 23  6  1  0
 12  7  1  0
 18 14  1  0
 23 19  1  0
  1 24  1  0
  2 25  1  0
  3 26  1  0
  9 27  1  0
 10 28  1  0
 15 29  1  0
 16 30  1  0
 17 31  1  0
M  END
>  <File>  (40) 
C-DAD_Monomer/C-SSS1a-UV.gjf

>  <System_Code>  (40) 
SSS

>  <Unit_Type>  (40) 
Monomer

>  <Family>  (40) 
chalcogendiazoloquinoxaline

>  <InChIKey>  (40) 
UFEGJSRIXAMOHZ-UHFFFAOYSA-N

$$$$
C-SSeS1a-UV
     RDKit          3D

 31 35  0  0  0  0  0  0  0  0999 V2000
   -3.8256    0.8560    0.0049 C   0  0  0  0  0  0  0  0  0  0  0  0
   -5.2241    0.5594    0.0092 C   0  0  0  0  0  0  0  0  0  0  0  0
   -5.4925   -0.7935    0.0092 C   0  0  0  0  0  0  0  0  0  0  0  0
   -4.0044   -1.7858    0.0037 S   0  0  0  0  0  0  0  0  0  0  0  0
   -2.9794   -0.2574    0.0016 C   0  0  0  0  0  0  0  0  0  0  0  0
   -1.5220   -0.2577   -0.0017 C   0  0  0  0  0  0  0  0  0  0  0  0
   -0.7314   -1.4361   -0.0040 C   0  0  0  0  0  0  0  0  0  0  0  0
   -1.4002   -2.6548   -0.0061 N   0  0  0  0  0  0  0  0  0  0  0  0
   -0.7213   -3.7867   -0.0082 C   0  0  0  0  0  0  0  0  0  0  0  0
    0.7207   -3.7868   -0.0082 C   0  0  0  0  0  0  0  0  0  0  0  0
    1.3999   -2.6551   -0.0061 N   0  0  0  0  0  0  0  0  0  0  0  0
    0.7313   -1.4362   -0.0040 C   0  0  0  0  0  0  0  0  0  0  0  0
    1.5221   -0.2578   -0.0017 C   0  0  0  0  0  0  0  0  0  0  0  0
    2.9796   -0.2575    0.0016 C   0  0  0  0  0  0  0  0  0  0  0  0
    3.8257    0.8559    0.0047 C   0  0  0  0  0  0  0  0  0  0  0  0
    5.2242    0.5593    0.0090 C   0  0  0  0  0  0  0  0  0  0  0  0
    5.4927   -0.7936    0.0093 C   0  0  0  0  0  0  0  0  0  0  0  0
    4.0046   -1.7859    0.0040 S   0  0  0  0  0  0  0  0  0  0  0  0
    0.7510    0.9759   -0.0023 C   0  0  0  0  0  0  0  0  0  0  0  0
    1.3262    2.1971   -0.0030 N   0  0  0  0  0  0  0  0  0  0  0  0
   -0.0000    3.4963   -0.0039 Se  0  0  0  0  0  2  0  0  0  0  0  0
   -1.3263    2.1971   -0.0030 N   0  0  0  0  0  0  0  0  0  0  0  0
   -0.7510    0.9760   -0.0022 C   0  0  0  0  0  0  0  0  0  0  0  0
   -3.4285    1.8603    0.0043 H   0  0  0  0  0  0  0  0  0  0  0  0
   -5.9911    1.3261    0.0121 H   0  0  0  0  0  0  0  0  0  0  0  0
   -6.4561   -1.2852    0.0120 H   0  0  0  0  0  0  0  0  0  0  0  0
   -1.2823   -4.7174   -0.0101 H   0  0  0  0  0  0  0  0  0  0  0  0
    1.2814   -4.7177   -0.0100 H   0  0  0  0  0  0  0  0  0  0  0  0
    3.4286    1.8602    0.0039 H   0  0  0  0  0  0  0  0  0  0  0  0
    5.9912    1.3261    0.0118 H   0  0  0  0  0  0  0  0  0  0  0  0
    6.4564   -1.2852    0.0121 H   0  0  0  0  0  0  0  0  0  0  0  0
  1  2  1  0
  2  3  2  0
  3  4  1  0
  4  5  1  0
  5  6  1  0
  6  7  2  0
  7  8  1  0
  8  9  2  0
  9 10  1  0
 10 11  2  0
 11 12  1  0
 12 13  2  0
 13 14  1  0
 14 15  2  0
 15 16  1  0
 16 17  2  0
 17 18  1  0
 13 19  1  0
 19 20  2  0
 20 21  1  0
 21 22  1  0
 22 23  2  0
  5  1  2  0
 23  6  1  0
 12  7  1  0
 18 14  1  0
 23 19  1  0
  1 24  1  0
  2 25  1  0
  3 26  1  0
  9 27  1  0
 10 28  1  0
 15 29  1  0
 16 30  1  0
 17 31  1  0
M  END
>  <File>  (41) 
C-DAD_Monomer/C-SSeS1a-UV.gjf

>  <System_Code>  (41) 
SSeS

>  <Unit_Type>  (41) 
Monomer

>  <Family>  (41) 
chalcogendiazoloquinoxaline

>  <InChIKey>  (41) 
VCMQLIKOKUQTCO-UHFFFAOYSA-N

$$$$
C-STeS1a-UV
     RDKit          3D

 31 35  0  0  0  0  0  0  0  0999 V2000
    3.8400    0.5135    0.0018 C   0  0  0  0  0  0  0  0  0  0  0  0
    5.2359    0.2043    0.0010 C   0  0  0  0  0  0  0  0  0  0  0  0
    5.4923   -1.1507   -0.0008 C   0  0  0  0  0  0  0  0  0  0  0  0
    3.9948   -2.1294   -0.0013 S   0  0  0  0  0  0  0  0  0  0  0  0
    2.9814   -0.5903    0.0007 C   0  0  0  0  0  0  0  0  0  0  0  0
    1.5223   -0.5791    0.0007 C   0  0  0  0  0  0  0  0  0  0  0  0
    0.7312   -1.7555    0.0005 C   0  0  0  0  0  0  0  0  0  0  0  0
    1.3986   -2.9756    0.0006 N   0  0  0  0  0  0  0  0  0  0  0  0
    0.7210   -4.1077    0.0003 C   0  0  0  0  0  0  0  0  0  0  0  0
   -0.7212   -4.1077   -0.0001 C   0  0  0  0  0  0  0  0  0  0  0  0
   -1.3987   -2.9755   -0.0001 N   0  0  0  0  0  0  0  0  0  0  0  0
   -0.7312   -1.7555    0.0003 C   0  0  0  0  0  0  0  0  0  0  0  0
   -1.5223   -0.5791    0.0004 C   0  0  0  0  0  0  0  0  0  0  0  0
   -2.9814   -0.5903    0.0004 C   0  0  0  0  0  0  0  0  0  0  0  0
   -3.8400    0.5135    0.0001 C   0  0  0  0  0  0  0  0  0  0  0  0
   -5.2359    0.2043    0.0002 C   0  0  0  0  0  0  0  0  0  0  0  0
   -5.4923   -1.1507    0.0009 C   0  0  0  0  0  0  0  0  0  0  0  0
   -3.9947   -2.1293    0.0010 S   0  0  0  0  0  0  0  0  0  0  0  0
   -0.7585    0.6663    0.0005 C   0  0  0  0  0  0  0  0  0  0  0  0
   -1.3650    1.8685   -0.0000 N   0  0  0  0  0  0  0  0  0  0  0  0
    0.0000    3.3392   -0.0009 Te  0  0  0  0  0  2  0  0  0  0  0  0
    1.3650    1.8685    0.0001 N   0  0  0  0  0  0  0  0  0  0  0  0
    0.7585    0.6663    0.0006 C   0  0  0  0  0  0  0  0  0  0  0  0
    3.4472    1.5191    0.0030 H   0  0  0  0  0  0  0  0  0  0  0  0
    6.0097    0.9644    0.0017 H   0  0  0  0  0  0  0  0  0  0  0  0
    6.4516   -1.6511   -0.0016 H   0  0  0  0  0  0  0  0  0  0  0  0
    1.2825   -5.0381    0.0004 H   0  0  0  0  0  0  0  0  0  0  0  0
   -1.2828   -5.0381   -0.0005 H   0  0  0  0  0  0  0  0  0  0  0  0
   -3.4471    1.5192   -0.0003 H   0  0  0  0  0  0  0  0  0  0  0  0
   -6.0096    0.9645   -0.0001 H   0  0  0  0  0  0  0  0  0  0  0  0
   -6.4515   -1.6510    0.0012 H   0  0  0  0  0  0  0  0  0  0  0  0
  1  2  1  0
  2  3  2  0
  3  4  1  0
  4  5  1  0
  5  6  1  0
  6  7  2  0
  7  8  1  0
  8  9  2  0
  9 10  1  0
 10 11  2  0
 11 12  1  0
 12 13  2  0
 13 14  1  0
 14 15  2  0
 15 16  1  0
 16 17  2  0
 17 18  1  0
 13 19  1  0
 19 20  2  0
 20 21  1  0
 21 22  1  0
 22 23  2  0
  5  1  2  0
 23  6  1  0
 12  7  1  0
 18 14  1  0
 23 19  1  0
  1 24  1  0
  2 25  1  0
  3 26  1  0
  9 27  1  0
 10 28  1  0
 15 29  1  0
 16 30  1  0
 17 31  1  0
M  END
>  <File>  (42) 
C-DAD_Monomer/C-STeS1a-UV.gjf

>  <System_Code>  (42) 
STeS

>  <Unit_Type>  (42) 
Monomer

>  <Family>  (42) 
chalcogendiazoloquinoxaline

>  <InChIKey>  (42) 
IGPAVGOGXXTPPV-UHFFFAOYSA-N

$$$$
C-SeOSe1a-UV
     RDKit          3D

 31 35  0  0  0  0  0  0  0  0999 V2000
    3.7837    1.6578   -0.0001 C   0  0  0  0  0  0  0  0  0  0  0  0
    5.1965    1.4314   -0.0007 C   0  0  0  0  0  0  0  0  0  0  0  0
    5.5716    0.1020   -0.0009 C   0  0  0  0  0  0  0  0  0  0  0  0
    4.0788   -1.0810   -0.0005 Se  0  0  0  0  0  2  0  0  0  0  0  0
    2.9712    0.5193    0.0001 C   0  0  0  0  0  0  0  0  0  0  0  0
    1.5227    0.5037    0.0006 C   0  0  0  0  0  0  0  0  0  0  0  0
    0.7321   -0.6779    0.0006 C   0  0  0  0  0  0  0  0  0  0  0  0
    1.4026   -1.8940    0.0006 N   0  0  0  0  0  0  0  0  0  0  0  0
    0.7210   -3.0267    0.0006 C   0  0  0  0  0  0  0  0  0  0  0  0
   -0.7211   -3.0267    0.0006 C   0  0  0  0  0  0  0  0  0  0  0  0
   -1.4027   -1.8939    0.0006 N   0  0  0  0  0  0  0  0  0  0  0  0
   -0.7321   -0.6779    0.0006 C   0  0  0  0  0  0  0  0  0  0  0  0
   -1.5227    0.5037    0.0006 C   0  0  0  0  0  0  0  0  0  0  0  0
   -2.9712    0.5193    0.0001 C   0  0  0  0  0  0  0  0  0  0  0  0
   -3.7836    1.6578   -0.0001 C   0  0  0  0  0  0  0  0  0  0  0  0
   -5.1964    1.4315   -0.0007 C   0  0  0  0  0  0  0  0  0  0  0  0
   -5.5715    0.1021   -0.0009 C   0  0  0  0  0  0  0  0  0  0  0  0
   -4.0787   -1.0810   -0.0006 Se  0  0  0  0  0  2  0  0  0  0  0  0
   -0.7317    1.7097    0.0008 C   0  0  0  0  0  0  0  0  0  0  0  0
   -1.1733    2.9874    0.0009 N   0  0  0  0  0  0  0  0  0  0  0  0
   -0.0001    3.7800    0.0010 O   0  0  0  0  0  0  0  0  0  0  0  0
    1.1733    2.9875    0.0008 N   0  0  0  0  0  0  0  0  0  0  0  0
    0.7317    1.7097    0.0008 C   0  0  0  0  0  0  0  0  0  0  0  0
    3.3625    2.6554    0.0000 H   0  0  0  0  0  0  0  0  0  0  0  0
    5.9116    2.2482   -0.0009 H   0  0  0  0  0  0  0  0  0  0  0  0
    6.5844   -0.2825   -0.0013 H   0  0  0  0  0  0  0  0  0  0  0  0
    1.2793   -3.9586    0.0006 H   0  0  0  0  0  0  0  0  0  0  0  0
   -1.2795   -3.9585    0.0005 H   0  0  0  0  0  0  0  0  0  0  0  0
   -3.3624    2.6554    0.0001 H   0  0  0  0  0  0  0  0  0  0  0  0
   -5.9115    2.2483   -0.0008 H   0  0  0  0  0  0  0  0  0  0  0  0
   -6.5844   -0.2825   -0.0014 H   0  0  0  0  0  0  0  0  0  0  0  0
  1  2  1  0
  2  3  2  0
  3  4  1  0
  4  5  1  0
  5  6  1  0
  6  7  2  0
  7  8  1  0
  8  9  2  0
  9 10  1  0
 10 11  2  0
 11 12  1  0
 12 13  2  0
 13 14  1  0
 14 15  2  0
 15 16  1  0
 16 17  2  0
 17 18  1  0
 13 19  1  0
 19 20  2  0
 20 21  1  0
 21 22  1  0
 22 23  2  0
  5  1  2  0
 23  6  1  0
 12  7  1  0
 18 14  1  0
 23 19  1  0
  1 24  1  0
  2 25  1  0
  3 26  1  0
  9 27  1  0
 10 28  1  0
 15 29  1  0
 16 30  1  0
 17 31  1  0
M  END
>  <File>  (43) 
C-DAD_Monomer/C-SeOSe1a-UV.gjf

>  <System_Code>  (43) 
SeOSe

>  <Unit_Type>  (43) 
Monomer

>  <Family>  (43) 
chalcogendiazoloquinoxaline

>  <InChIKey>  (43) 
FYROWOIFYMKTQN-UHFFFAOYSA-N

$$$$
C-SeSSe1a-UV
     RDKit          3D

 31 35  0  0  0  0  0  0  0  0999 V2000
    3.8216    1.4729   -0.0004 C   0  0  0  0  0  0  0  0  0  0  0  0
    5.2286    1.2098   -0.0004 C   0  0  0  0  0  0  0  0  0  0  0  0
    5.5701   -0.1280   -0.0004 C   0  0  0  0  0  0  0  0  0  0  0  0
    4.0461   -1.2719   -0.0001 Se  0  0  0  0  0  2  0  0  0  0  0  0
    2.9751    0.3598   -0.0001 C   0  0  0  0  0  0  0  0  0  0  0  0
    1.5225    0.3732    0.0001 C   0  0  0  0  0  0  0  0  0  0  0  0
    0.7300   -0.8053    0.0002 C   0  0  0  0  0  0  0  0  0  0  0  0
    1.3980   -2.0224    0.0006 N   0  0  0  0  0  0  0  0  0  0  0  0
    0.7205   -3.1571    0.0010 C   0  0  0  0  0  0  0  0  0  0  0  0
   -0.7207   -3.1570    0.0008 C   0  0  0  0  0  0  0  0  0  0  0  0
   -1.3981   -2.0223    0.0003 N   0  0  0  0  0  0  0  0  0  0  0  0
   -0.7300   -0.8053    0.0001 C   0  0  0  0  0  0  0  0  0  0  0  0
   -1.5225    0.3732    0.0001 C   0  0  0  0  0  0  0  0  0  0  0  0
   -2.9751    0.3598   -0.0002 C   0  0  0  0  0  0  0  0  0  0  0  0
   -3.8215    1.4729    0.0004 C   0  0  0  0  0  0  0  0  0  0  0  0
   -5.2285    1.2099    0.0000 C   0  0  0  0  0  0  0  0  0  0  0  0
   -5.5701   -0.1280   -0.0011 C   0  0  0  0  0  0  0  0  0  0  0  0
   -4.0461   -1.2718   -0.0014 Se  0  0  0  0  0  2  0  0  0  0  0  0
   -0.7469    1.5999    0.0005 C   0  0  0  0  0  0  0  0  0  0  0  0
   -1.2956    2.8345    0.0009 N   0  0  0  0  0  0  0  0  0  0  0  0
    0.0000    4.0181    0.0014 S   0  0  0  0  0  0  0  0  0  0  0  0
    1.2957    2.8345    0.0008 N   0  0  0  0  0  0  0  0  0  0  0  0
    0.7469    1.5999    0.0004 C   0  0  0  0  0  0  0  0  0  0  0  0
    3.4170    2.4761   -0.0004 H   0  0  0  0  0  0  0  0  0  0  0  0
    5.9635    2.0092   -0.0006 H   0  0  0  0  0  0  0  0  0  0  0  0
    6.5732   -0.5378   -0.0004 H   0  0  0  0  0  0  0  0  0  0  0  0
    1.2814   -4.0875    0.0016 H   0  0  0  0  0  0  0  0  0  0  0  0
   -1.2817   -4.0874    0.0011 H   0  0  0  0  0  0  0  0  0  0  0  0
   -3.4169    2.4761    0.0013 H   0  0  0  0  0  0  0  0  0  0  0  0
   -5.9635    2.0092    0.0006 H   0  0  0  0  0  0  0  0  0  0  0  0
   -6.5732   -0.5378   -0.0016 H   0  0  0  0  0  0  0  0  0  0  0  0
  1  2  1  0
  2  3  2  0
  3  4  1  0
  4  5  1  0
  5  6  1  0
  6  7  2  0
  7  8  1  0
  8  9  2  0
  9 10  1  0
 10 11  2  0
 11 12  1  0
 12 13  2  0
 13 14  1  0
 14 15  2  0
 15 16  1  0
 16 17  2  0
 17 18  1  0
 13 19  1  0
 19 20  2  0
 20 21  1  0
 21 22  1  0
 22 23  2  0
  5  1  2  0
 23  6  1  0
 12  7  1  0
 18 14  1  0
 23 19  1  0
  1 24  1  0
  2 25  1  0
  3 26  1  0
  9 27  1  0
 10 28  1  0
 15 29  1  0
 16 30  1  0
 17 31  1  0
M  END
>  <File>  (44) 
C-DAD_Monomer/C-SeSSe1a-UV.gjf

>  <System_Code>  (44) 
SeSSe

>  <Unit_Type>  (44) 
Monomer

>  <Family>  (44) 
chalcogendiazoloquinoxaline

>  <InChIKey>  (44) 
FQZHDGNQLCWYOV-UHFFFAOYSA-N

$$$$
C-SeSeSe1a-UV
     RDKit          3D

 31 35  0  0  0  0  0  0  0  0999 V2000
   -3.8345    1.1405    0.0034 C   0  0  0  0  0  0  0  0  0  0  0  0
   -5.2395    0.8650    0.0033 C   0  0  0  0  0  0  0  0  0  0  0  0
   -5.5695   -0.4754    0.0008 C   0  0  0  0  0  0  0  0  0  0  0  0
   -4.0348   -1.6056   -0.0012 Se  0  0  0  0  0  2  0  0  0  0  0  0
   -2.9763    0.0366    0.0013 C   0  0  0  0  0  0  0  0  0  0  0  0
   -1.5223    0.0597    0.0007 C   0  0  0  0  0  0  0  0  0  0  0  0
   -0.7298   -1.1178    0.0004 C   0  0  0  0  0  0  0  0  0  0  0  0
   -1.3967   -2.3355    0.0001 N   0  0  0  0  0  0  0  0  0  0  0  0
   -0.7206   -3.4706   -0.0000 C   0  0  0  0  0  0  0  0  0  0  0  0
    0.7206   -3.4706   -0.0000 C   0  0  0  0  0  0  0  0  0  0  0  0
    1.3966   -2.3355    0.0002 N   0  0  0  0  0  0  0  0  0  0  0  0
    0.7297   -1.1178    0.0004 C   0  0  0  0  0  0  0  0  0  0  0  0
    1.5222    0.0596    0.0007 C   0  0  0  0  0  0  0  0  0  0  0  0
    2.9762    0.0365    0.0012 C   0  0  0  0  0  0  0  0  0  0  0  0
    3.8344    1.1403    0.0032 C   0  0  0  0  0  0  0  0  0  0  0  0
    5.2393    0.8648    0.0031 C   0  0  0  0  0  0  0  0  0  0  0  0
    5.5693   -0.4756    0.0008 C   0  0  0  0  0  0  0  0  0  0  0  0
    4.0346   -1.6058   -0.0010 Se  0  0  0  0  0  2  0  0  0  0  0  0
    0.7517    1.2942    0.0002 C   0  0  0  0  0  0  0  0  0  0  0  0
    1.3281    2.5144   -0.0007 N   0  0  0  0  0  0  0  0  0  0  0  0
    0.0003    3.8141   -0.0016 Se  0  0  0  0  0  2  0  0  0  0  0  0
   -1.3278    2.5145   -0.0006 N   0  0  0  0  0  0  0  0  0  0  0  0
   -0.7516    1.2943    0.0002 C   0  0  0  0  0  0  0  0  0  0  0  0
   -3.4376    2.1463    0.0049 H   0  0  0  0  0  0  0  0  0  0  0  0
   -5.9810    1.6583    0.0050 H   0  0  0  0  0  0  0  0  0  0  0  0
   -6.5691   -0.8939    0.0002 H   0  0  0  0  0  0  0  0  0  0  0  0
   -1.2822   -4.4006   -0.0003 H   0  0  0  0  0  0  0  0  0  0  0  0
    1.2822   -4.4006   -0.0002 H   0  0  0  0  0  0  0  0  0  0  0  0
    3.4375    2.1462    0.0045 H   0  0  0  0  0  0  0  0  0  0  0  0
    5.9809    1.6581    0.0046 H   0  0  0  0  0  0  0  0  0  0  0  0
    6.5689   -0.8941    0.0002 H   0  0  0  0  0  0  0  0  0  0  0  0
  1  2  1  0
  2  3  2  0
  3  4  1  0
  4  5  1  0
  5  6  1  0
  6  7  2  0
  7  8  1  0
  8  9  2  0
  9 10  1  0
 10 11  2  0
 11 12  1  0
 12 13  2  0
 13 14  1  0
 14 15  2  0
 15 16  1  0
 16 17  2  0
 17 18  1  0
 13 19  1  0
 19 20  2  0
 20 21  1  0
 21 22  1  0
 22 23  2  0
  5  1  2  0
 23  6  1  0
 12  7  1  0
 18 14  1  0
 23 19  1  0
  1 24  1  0
  2 25  1  0
  3 26  1  0
  9 27  1  0
 10 28  1  0
 15 29  1  0
 16 30  1  0
 17 31  1  0
M  END
>  <File>  (45) 
C-DAD_Monomer/C-SeSeSe1a-UV.gjf

>  <System_Code>  (45) 
SeSeSe

>  <Unit_Type>  (45) 
Monomer

>  <Family>  (45) 
chalcogendiazoloquinoxaline

>  <InChIKey>  (45) 
VJKQVEQOAGNHGR-UHFFFAOYSA-N

$$$$
C-SeTeSe1a-UV
     RDKit          3D

 31 35  0  0  0  0  0  0  0  0999 V2000
   -3.8483    0.8243   -0.0055 C   0  0  0  0  0  0  0  0  0  0  0  0
   -5.2509    0.5365   -0.0027 C   0  0  0  0  0  0  0  0  0  0  0  0
   -5.5695   -0.8064    0.0049 C   0  0  0  0  0  0  0  0  0  0  0  0
   -4.0237   -1.9227    0.0070 Se  0  0  0  0  0  2  0  0  0  0  0  0
   -2.9779   -0.2697   -0.0011 C   0  0  0  0  0  0  0  0  0  0  0  0
   -1.5225   -0.2351   -0.0015 C   0  0  0  0  0  0  0  0  0  0  0  0
   -0.7296   -1.4106   -0.0018 C   0  0  0  0  0  0  0  0  0  0  0  0
   -1.3952   -2.6294   -0.0024 N   0  0  0  0  0  0  0  0  0  0  0  0
   -0.7207   -3.7649   -0.0060 C   0  0  0  0  0  0  0  0  0  0  0  0
    0.7206   -3.7649   -0.0093 C   0  0  0  0  0  0  0  0  0  0  0  0
    1.3953   -2.6295   -0.0064 N   0  0  0  0  0  0  0  0  0  0  0  0
    0.7297   -1.4107   -0.0018 C   0  0  0  0  0  0  0  0  0  0  0  0
    1.5225   -0.2351    0.0025 C   0  0  0  0  0  0  0  0  0  0  0  0
    2.9779   -0.2697    0.0062 C   0  0  0  0  0  0  0  0  0  0  0  0
    3.8483    0.8243    0.0174 C   0  0  0  0  0  0  0  0  0  0  0  0
    5.2509    0.5363    0.0175 C   0  0  0  0  0  0  0  0  0  0  0  0
    5.5693   -0.8067    0.0062 C   0  0  0  0  0  0  0  0  0  0  0  0
    4.0235   -1.9228   -0.0053 Se  0  0  0  0  0  2  0  0  0  0  0  0
    0.7592    1.0109    0.0017 C   0  0  0  0  0  0  0  0  0  0  0  0
    1.3669    2.2122    0.0021 N   0  0  0  0  0  0  0  0  0  0  0  0
    0.0001    3.6830   -0.0030 Te  0  0  0  0  0  2  0  0  0  0  0  0
   -1.3668    2.2123   -0.0045 N   0  0  0  0  0  0  0  0  0  0  0  0
   -0.7591    1.0109   -0.0017 C   0  0  0  0  0  0  0  0  0  0  0  0
   -3.4555    1.8314   -0.0107 H   0  0  0  0  0  0  0  0  0  0  0  0
   -5.9990    1.3239   -0.0064 H   0  0  0  0  0  0  0  0  0  0  0  0
   -6.5655   -1.2333    0.0082 H   0  0  0  0  0  0  0  0  0  0  0  0
   -1.2832   -4.6944   -0.0067 H   0  0  0  0  0  0  0  0  0  0  0  0
    1.2830   -4.6945   -0.0142 H   0  0  0  0  0  0  0  0  0  0  0  0
    3.4558    1.8315    0.0247 H   0  0  0  0  0  0  0  0  0  0  0  0
    5.9992    1.3235    0.0259 H   0  0  0  0  0  0  0  0  0  0  0  0
    6.5653   -1.2338    0.0040 H   0  0  0  0  0  0  0  0  0  0  0  0
  1  2  1  0
  2  3  2  0
  3  4  1  0
  4  5  1  0
  5  6  1  0
  6  7  2  0
  7  8  1  0
  8  9  2  0
  9 10  1  0
 10 11  2  0
 11 12  1  0
 12 13  2  0
 13 14  1  0
 14 15  2  0
 15 16  1  0
 16 17  2  0
 17 18  1  0
 13 19  1  0
 19 20  2  0
 20 21  1  0
 21 22  1  0
 22 23  2  0
  5  1  2  0
 23  6  1  0
 12  7  1  0
 18 14  1  0
 23 19  1  0
  1 24  1  0
  2 25  1  0
  3 26  1  0
  9 27  1  0
 10 28  1  0
 15 29  1  0
 16 30  1  0
 17 31  1  0
M  END
>  <File>  (46) 
C-DAD_Monomer/C-SeTeSe1a-UV.gjf

>  <System_Code>  (46) 
SeTeSe

>  <Unit_Type>  (46) 
Monomer

>  <Family>  (46) 
chalcogendiazoloquinoxaline

>  <InChIKey>  (46) 
UXWRGNXHWHFAPI-UHFFFAOYSA-N

$$$$
C-TeOTe1a-UV
     RDKit          3D

 31 35  0  0  0  0  0  0  0  0999 V2000
    3.8032    1.8608    0.0028 C   0  0  0  0  0  0  0  0  0  0  0  0
    5.2228    1.6504    0.0033 C   0  0  0  0  0  0  0  0  0  0  0  0
    5.6703    0.3415    0.0014 C   0  0  0  0  0  0  0  0  0  0  0  0
    4.1080   -1.0361   -0.0011 Te  0  0  0  0  0  2  0  0  0  0  0  0
    2.9667    0.7403    0.0009 C   0  0  0  0  0  0  0  0  0  0  0  0
    1.5231    0.7610    0.0002 C   0  0  0  0  0  0  0  0  0  0  0  0
    0.7307   -0.4210    0.0003 C   0  0  0  0  0  0  0  0  0  0  0  0
    1.3978   -1.6363    0.0007 N   0  0  0  0  0  0  0  0  0  0  0  0
    0.7204   -2.7739    0.0015 C   0  0  0  0  0  0  0  0  0  0  0  0
   -0.7195   -2.7741    0.0016 C   0  0  0  0  0  0  0  0  0  0  0  0
   -1.3973   -1.6367    0.0007 N   0  0  0  0  0  0  0  0  0  0  0  0
   -0.7306   -0.4211    0.0003 C   0  0  0  0  0  0  0  0  0  0  0  0
   -1.5231    0.7608    0.0002 C   0  0  0  0  0  0  0  0  0  0  0  0
   -2.9667    0.7402    0.0009 C   0  0  0  0  0  0  0  0  0  0  0  0
   -3.8032    1.8607    0.0028 C   0  0  0  0  0  0  0  0  0  0  0  0
   -5.2228    1.6505    0.0033 C   0  0  0  0  0  0  0  0  0  0  0  0
   -5.6704    0.3416    0.0014 C   0  0  0  0  0  0  0  0  0  0  0  0
   -4.1082   -1.0361   -0.0011 Te  0  0  0  0  0  2  0  0  0  0  0  0
   -0.7319    1.9675   -0.0006 C   0  0  0  0  0  0  0  0  0  0  0  0
   -1.1748    3.2440   -0.0017 N   0  0  0  0  0  0  0  0  0  0  0  0
    0.0000    4.0376   -0.0023 O   0  0  0  0  0  0  0  0  0  0  0  0
    1.1748    3.2440   -0.0016 N   0  0  0  0  0  0  0  0  0  0  0  0
    0.7318    1.9676   -0.0005 C   0  0  0  0  0  0  0  0  0  0  0  0
    3.3915    2.8647    0.0039 H   0  0  0  0  0  0  0  0  0  0  0  0
    5.9056    2.4970    0.0049 H   0  0  0  0  0  0  0  0  0  0  0  0
    6.7181    0.0579    0.0014 H   0  0  0  0  0  0  0  0  0  0  0  0
    1.2806   -3.7045    0.0021 H   0  0  0  0  0  0  0  0  0  0  0  0
   -1.2793   -3.7049    0.0021 H   0  0  0  0  0  0  0  0  0  0  0  0
   -3.3915    2.8646    0.0039 H   0  0  0  0  0  0  0  0  0  0  0  0
   -5.9056    2.4971    0.0048 H   0  0  0  0  0  0  0  0  0  0  0  0
   -6.7183    0.0581    0.0014 H   0  0  0  0  0  0  0  0  0  0  0  0
  1  2  1  0
  2  3  2  0
  3  4  1  0
  4  5  1  0
  5  6  1  0
  6  7  2  0
  7  8  1  0
  8  9  2  0
  9 10  1  0
 10 11  2  0
 11 12  1  0
 12 13  2  0
 13 14  1  0
 14 15  2  0
 15 16  1  0
 16 17  2  0
 17 18  1  0
 13 19  1  0
 19 20  2  0
 20 21  1  0
 21 22  1  0
 22 23  2  0
  5  1  2  0
 23  6  1  0
 12  7  1  0
 18 14  1  0
 23 19  1  0
  1 24  1  0
  2 25  1  0
  3 26  1  0
  9 27  1  0
 10 28  1  0
 15 29  1  0
 16 30  1  0
 17 31  1  0
M  END
>  <File>  (47) 
C-DAD_Monomer/C-TeOTe1a-UV.gjf

>  <System_Code>  (47) 
TeOTe

>  <Unit_Type>  (47) 
Monomer

>  <Family>  (47) 
chalcogendiazoloquinoxaline

>  <InChIKey>  (47) 
RLQLDXUZFLUTSN-UHFFFAOYSA-N

$$$$
C-TeSTe1a-UV
     RDKit          3D

 31 35  0  0  0  0  0  0  0  0999 V2000
    3.8372    1.6961   -0.0001 C   0  0  0  0  0  0  0  0  0  0  0  0
    5.2520    1.4508   -0.0004 C   0  0  0  0  0  0  0  0  0  0  0  0
    5.6687    0.1324   -0.0006 C   0  0  0  0  0  0  0  0  0  0  0  0
    4.0711   -1.2065   -0.0003 Te  0  0  0  0  0  2  0  0  0  0  0  0
    2.9692    0.6003    0.0001 C   0  0  0  0  0  0  0  0  0  0  0  0
    1.5225    0.6473    0.0003 C   0  0  0  0  0  0  0  0  0  0  0  0
    0.7287   -0.5319    0.0004 C   0  0  0  0  0  0  0  0  0  0  0  0
    1.3930   -1.7484    0.0004 N   0  0  0  0  0  0  0  0  0  0  0  0
    0.7194   -2.8879    0.0005 C   0  0  0  0  0  0  0  0  0  0  0  0
   -0.7193   -2.8879    0.0005 C   0  0  0  0  0  0  0  0  0  0  0  0
   -1.3930   -1.7485    0.0004 N   0  0  0  0  0  0  0  0  0  0  0  0
   -0.7288   -0.5318    0.0004 C   0  0  0  0  0  0  0  0  0  0  0  0
   -1.5226    0.6474    0.0003 C   0  0  0  0  0  0  0  0  0  0  0  0
   -2.9693    0.6004    0.0001 C   0  0  0  0  0  0  0  0  0  0  0  0
   -3.8373    1.6961   -0.0001 C   0  0  0  0  0  0  0  0  0  0  0  0
   -5.2521    1.4507   -0.0004 C   0  0  0  0  0  0  0  0  0  0  0  0
   -5.6687    0.1323   -0.0006 C   0  0  0  0  0  0  0  0  0  0  0  0
   -4.0712   -1.2064   -0.0003 Te  0  0  0  0  0  2  0  0  0  0  0  0
   -0.7469    1.8746    0.0005 C   0  0  0  0  0  0  0  0  0  0  0  0
   -1.2977    3.1076    0.0006 N   0  0  0  0  0  0  0  0  0  0  0  0
    0.0002    4.2921    0.0007 S   0  0  0  0  0  0  0  0  0  0  0  0
    1.2979    3.1075    0.0006 N   0  0  0  0  0  0  0  0  0  0  0  0
    0.7470    1.8745    0.0005 C   0  0  0  0  0  0  0  0  0  0  0  0
    3.4417    2.7053    0.0001 H   0  0  0  0  0  0  0  0  0  0  0  0
    5.9541    2.2818   -0.0005 H   0  0  0  0  0  0  0  0  0  0  0  0
    6.7100   -0.1756   -0.0009 H   0  0  0  0  0  0  0  0  0  0  0  0
    1.2821   -3.8169    0.0005 H   0  0  0  0  0  0  0  0  0  0  0  0
   -1.2819   -3.8170    0.0005 H   0  0  0  0  0  0  0  0  0  0  0  0
   -3.4419    2.7053    0.0001 H   0  0  0  0  0  0  0  0  0  0  0  0
   -5.9542    2.2817   -0.0006 H   0  0  0  0  0  0  0  0  0  0  0  0
   -6.7099   -0.1757   -0.0010 H   0  0  0  0  0  0  0  0  0  0  0  0
  1  2  1  0
  2  3  2  0
  3  4  1  0
  4  5  1  0
  5  6  1  0
  6  7  2  0
  7  8  1  0
  8  9  2  0
  9 10  1  0
 10 11  2  0
 11 12  1  0
 12 13  2  0
 13 14  1  0
 14 15  2  0
 15 16  1  0
 16 17  2  0
 17 18  1  0
 13 19  1  0
 19 20  2  0
 20 21  1  0
 21 22  1  0
 22 23  2  0
  5  1  2  0
 23  6  1  0
 12  7  1  0
 18 14  1  0
 23 19  1  0
  1 24  1  0
  2 25  1  0
  3 26  1  0
  9 27  1  0
 10 28  1  0
 15 29  1  0
 16 30  1  0
 17 31  1  0
M  END
>  <File>  (48) 
C-DAD_Monomer/C-TeSTe1a-UV.gjf

>  <System_Code>  (48) 
TeSTe

>  <Unit_Type>  (48) 
Monomer

>  <Family>  (48) 
chalcogendiazoloquinoxaline

>  <InChIKey>  (48) 
MHPULXUBMWJHOE-UHFFFAOYSA-N

$$$$
C-TeSeTe1a-UV
     RDKit          3D

 31 35  0  0  0  0  0  0  0  0999 V2000
    3.8493    1.3899   -0.0025 C   0  0  0  0  0  0  0  0  0  0  0  0
    5.2623    1.1320   -0.0047 C   0  0  0  0  0  0  0  0  0  0  0  0
    5.6678   -0.1895   -0.0048 C   0  0  0  0  0  0  0  0  0  0  0  0
    4.0575   -1.5141   -0.0012 Te  0  0  0  0  0  2  0  0  0  0  0  0
    2.9699    0.3036   -0.0005 C   0  0  0  0  0  0  0  0  0  0  0  0
    1.5221    0.3599    0.0014 C   0  0  0  0  0  0  0  0  0  0  0  0
    0.7283   -0.8183    0.0029 C   0  0  0  0  0  0  0  0  0  0  0  0
    1.3913   -2.0356    0.0042 N   0  0  0  0  0  0  0  0  0  0  0  0
    0.7187   -3.1755    0.0059 C   0  0  0  0  0  0  0  0  0  0  0  0
   -0.7197   -3.1753    0.0059 C   0  0  0  0  0  0  0  0  0  0  0  0
   -1.3919   -2.0353    0.0042 N   0  0  0  0  0  0  0  0  0  0  0  0
   -0.7288   -0.8181    0.0029 C   0  0  0  0  0  0  0  0  0  0  0  0
   -1.5223    0.3603    0.0014 C   0  0  0  0  0  0  0  0  0  0  0  0
   -2.9701    0.3041   -0.0005 C   0  0  0  0  0  0  0  0  0  0  0  0
   -3.8497    1.3903   -0.0025 C   0  0  0  0  0  0  0  0  0  0  0  0
   -5.2627    1.1322   -0.0047 C   0  0  0  0  0  0  0  0  0  0  0  0
   -5.6679   -0.1894   -0.0048 C   0  0  0  0  0  0  0  0  0  0  0  0
   -4.0575   -1.5137   -0.0012 Te  0  0  0  0  0  2  0  0  0  0  0  0
   -0.7516    1.5950    0.0015 C   0  0  0  0  0  0  0  0  0  0  0  0
   -1.3299    2.8137    0.0017 N   0  0  0  0  0  0  0  0  0  0  0  0
    0.0005    4.1141    0.0019 Se  0  0  0  0  0  2  0  0  0  0  0  0
    1.3305    2.8133    0.0017 N   0  0  0  0  0  0  0  0  0  0  0  0
    0.7517    1.5948    0.0015 C   0  0  0  0  0  0  0  0  0  0  0  0
    3.4617    2.4018   -0.0024 H   0  0  0  0  0  0  0  0  0  0  0  0
    5.9713    1.9573   -0.0065 H   0  0  0  0  0  0  0  0  0  0  0  0
    6.7064   -0.5064   -0.0066 H   0  0  0  0  0  0  0  0  0  0  0  0
    1.2822   -4.1041    0.0072 H   0  0  0  0  0  0  0  0  0  0  0  0
   -1.2834   -4.1038    0.0072 H   0  0  0  0  0  0  0  0  0  0  0  0
   -3.4623    2.4022   -0.0024 H   0  0  0  0  0  0  0  0  0  0  0  0
   -5.9718    1.9574   -0.0065 H   0  0  0  0  0  0  0  0  0  0  0  0
   -6.7065   -0.5065   -0.0066 H   0  0  0  0  0  0  0  0  0  0  0  0
  1  2  1  0
  2  3  2  0
  3  4  1  0
  4  5  1  0
  5  6  1  0
  6  7  2  0
  7  8  1  0
  8  9  2  0
  9 10  1  0
 10 11  2  0
 11 12  1  0
 12 13  2  0
 13 14  1  0
 14 15  2  0
 15 16  1  0
 16 17  2  0
 17 18  1  0
 13 19  1  0
 19 20  2  0
 20 21  1  0
 21 22  1  0
 22 23  2  0
  5  1  2  0
 23  6  1  0
 12  7  1  0
 18 14  1  0
 23 19  1  0
  1 24  1  0
  2 25  1  0
  3 26  1  0
  9 27  1  0
 10 28  1  0
 15 29  1  0
 16 30  1  0
 17 31  1  0
M  END
>  <File>  (49) 
C-DAD_Monomer/C-TeSeTe1a-UV.gjf

>  <System_Code>  (49) 
TeSeTe

>  <Unit_Type>  (49) 
Monomer

>  <Family>  (49) 
chalcogendiazoloquinoxaline

>  <InChIKey>  (49) 
KIEZZJYGNHBPNA-UHFFFAOYSA-N

$$$$
C-TeTeTe1a-UV
     RDKit          3D

 31 35  0  0  0  0  0  0  0  0999 V2000
   -3.8624    1.0957    0.0011 C   0  0  0  0  0  0  0  0  0  0  0  0
   -5.2733    0.8247    0.0025 C   0  0  0  0  0  0  0  0  0  0  0  0
   -5.6670   -0.5001    0.0028 C   0  0  0  0  0  0  0  0  0  0  0  0
   -4.0435   -1.8096    0.0007 Te  0  0  0  0  0  2  0  0  0  0  0  0
   -2.9709    0.0194    0.0000 C   0  0  0  0  0  0  0  0  0  0  0  0
   -1.5222    0.0860   -0.0012 C   0  0  0  0  0  0  0  0  0  0  0  0
   -0.7285   -1.0907   -0.0019 C   0  0  0  0  0  0  0  0  0  0  0  0
   -1.3904   -2.3090   -0.0024 N   0  0  0  0  0  0  0  0  0  0  0  0
   -0.7194   -3.4495   -0.0031 C   0  0  0  0  0  0  0  0  0  0  0  0
    0.7188   -3.4496   -0.0031 C   0  0  0  0  0  0  0  0  0  0  0  0
    1.3900   -2.3093   -0.0024 N   0  0  0  0  0  0  0  0  0  0  0  0
    0.7284   -1.0908   -0.0019 C   0  0  0  0  0  0  0  0  0  0  0  0
    1.5222    0.0859   -0.0012 C   0  0  0  0  0  0  0  0  0  0  0  0
    2.9709    0.0192    0.0000 C   0  0  0  0  0  0  0  0  0  0  0  0
    3.8624    1.0955    0.0011 C   0  0  0  0  0  0  0  0  0  0  0  0
    5.2733    0.8245    0.0025 C   0  0  0  0  0  0  0  0  0  0  0  0
    5.6671   -0.5003    0.0028 C   0  0  0  0  0  0  0  0  0  0  0  0
    4.0435   -1.8097    0.0007 Te  0  0  0  0  0  2  0  0  0  0  0  0
    0.7590    1.3322   -0.0012 C   0  0  0  0  0  0  0  0  0  0  0  0
    1.3697    2.5316   -0.0010 N   0  0  0  0  0  0  0  0  0  0  0  0
    0.0001    4.0035   -0.0005 Te  0  0  0  0  0  2  0  0  0  0  0  0
   -1.3696    2.5316   -0.0010 N   0  0  0  0  0  0  0  0  0  0  0  0
   -0.7590    1.3323   -0.0012 C   0  0  0  0  0  0  0  0  0  0  0  0
   -3.4799    2.1092    0.0009 H   0  0  0  0  0  0  0  0  0  0  0  0
   -5.9893    1.6441    0.0036 H   0  0  0  0  0  0  0  0  0  0  0  0
   -6.7029   -0.8262    0.0041 H   0  0  0  0  0  0  0  0  0  0  0  0
   -1.2840   -4.3776   -0.0035 H   0  0  0  0  0  0  0  0  0  0  0  0
    1.2831   -4.3778   -0.0036 H   0  0  0  0  0  0  0  0  0  0  0  0
    3.4800    2.1090    0.0009 H   0  0  0  0  0  0  0  0  0  0  0  0
    5.9893    1.6439    0.0035 H   0  0  0  0  0  0  0  0  0  0  0  0
    6.7029   -0.8264    0.0041 H   0  0  0  0  0  0  0  0  0  0  0  0
  1  2  1  0
  2  3  2  0
  3  4  1  0
  4  5  1  0
  5  6  1  0
  6  7  2  0
  7  8  1  0
  8  9  2  0
  9 10  1  0
 10 11  2  0
 11 12  1  0
 12 13  2  0
 13 14  1  0
 14 15  2  0
 15 16  1  0
 16 17  2  0
 17 18  1  0
 13 19  1  0
 19 20  2  0
 20 21  1  0
 21 22  1  0
 22 23  2  0
  5  1  2  0
 23  6  1  0
 12  7  1  0
 18 14  1  0
 23 19  1  0
  1 24  1  0
  2 25  1  0
  3 26  1  0
  9 27  1  0
 10 28  1  0
 15 29  1  0
 16 30  1  0
 17 31  1  0
M  END
>  <File>  (50) 
C-DAD_Monomer/C-TeTeTe1a-UV.gjf

>  <System_Code>  (50) 
TeTeTe

>  <Unit_Type>  (50) 
Monomer

>  <Family>  (50) 
chalcogendiazoloquinoxaline

>  <InChIKey>  (50) 
PXKCYJPHIAPOPN-UHFFFAOYSA-N

$$$$
